"""
*****************************************************************************
*****************************************************************************
*****************************************************************************
*****************************************************************************
************************** IMPORTANT NOTICE *********************************
This mechanism is intended for use by not-for-profit researchers only.
Any copying or distribution of this mechanism, or use (in part or whole)
in any commercial software is strictly forbidden without the written
consent of the authors: N. A. Slavinskaya (Nadja.Slavinskaya@dlr.de) or
U. Riedel (Uwe.Riedel@dlr.de)
*****************************************************************************
*****************************************************************************
*****************************************************************************
*****************************************************************************
Appropriate Citations:
The first version of this reaction model was originally published in :
[N. A. Slavinskaya, P. Frank, Combustion and Flame 156 (2009), pp. 1705-1722]
It was later modified according to the changes described in
[S. B. Dworkin, Q. Zhang, M. J. Thomson, N. A. Slavinskaya, U. Riedel,
Combustion and Flame 158 (2011), pp. 1682-1695.]
It is currently being made available as supplemental material as part of
[N. A. Slavinskaya, U. Riedel, S. B. Dworkin, M. J. Thomson,
Combustion and Flame ********************]
*****************************************************************************
*****************************************************************************
*****************************************************************************
*****************************************************************************
*****************************************************************************
"""

units(length='cm', time='s', quantity='mol', act_energy='K')

ideal_gas(name='gas',
          elements="H O C N Ar He",
          species="""H2       CH4      C2H2     C2H4     C2H6     C3H4
                     C3H6     C4H2     C4H4     C4H6     C4H7     C4H8
                     C3H8     O2       C2       H2O      H2O2     CO
                     CO2      CH2O     CH2CO    CH3CHO   C        H
                     CH       CH2      CH2(S)   CH3      C2H      C2H3
                     C2H5     C3H2     H2CCCH   H2CCCCH  C3H5     i-C4H5
                     O        OH       HO2      HCO      CH3O     CH2OH
                     HCCO     CH2HCO   CH3CO    N2       AR       A1
                     A1-      C6H5OH   C6H5O    C5H5     C5H6     A1C2H
                     C7H8     A1C2H3   A1C2H3*  n-C8H7   C7H7     A1C2H-
                     A2       A2-      INDENE   INDENYL  P2       P2-
                     A2C2H*   A2R5     A2C2H    A2R5-    A3       A3-
                     A4       A4-      C18H12   C18H11   A3C2H    A3C2H*
                     C4H      C4       C6H2     C8H2     C6H      C8H
                     A4C2H    A4C2H*   BAPYR*S  BGHIF    BAPYR    A2CH3
                     A2CH2    A3CH3    A3CH2    HE""",
          reactions='all',
          transport='Mix',
          initial_state=state(temperature=300.0, pressure=OneAtm))

#-------------------------------------------------------------------------------
# Species data
#-------------------------------------------------------------------------------

species(name='H2',
        atoms='H:2',
        thermo=(NASA([200.00, 1000.00],
                     [ 2.34430290E+00,  7.98042480E-03, -1.94779170E-05,
                       2.01569670E-08, -7.37602890E-12, -9.17924130E+02,
                       6.83002180E-01]),
                NASA([1000.00, 6000.00],
                     [ 2.93283050E+00,  8.26598020E-04, -1.46400570E-07,
                       1.54098510E-11, -6.88796150E-16, -8.13055820E+02,
                      -1.02431640E+00])),
        transport=gas_transport(geom='linear',
                                diam=2.92,
                                well_depth=38.0,
                                polar=0.79,
                                rot_relax=280.0),
        note='REFELEMENTRUS78')

species(name='CH4',
        atoms='C:1 H:4',
        thermo=(NASA([200.00, 1000.00],
                     [ 5.14825732E+00, -1.37002410E-02,  4.93749414E-05,
                      -4.91952339E-08,  1.70097299E-11, -1.02453222E+04,
                      -4.63322726E+00]),
                NASA([1000.00, 6000.00],
                     [ 1.91178600E+00,  9.60267960E-03, -3.38387841E-06,
                       5.38797240E-10, -3.19306807E-14, -1.00992136E+04,
                       8.48241861E+00])),
        transport=gas_transport(geom='nonlinear',
                                diam=3.746,
                                well_depth=141.4,
                                polar=2.6,
                                rot_relax=13.0),
        note='RRHOg8/99')

species(name='C2H2',
        atoms='C:2 H:2',
        thermo=(NASA([200.00, 1000.00],
                     [ 8.08679682E-01,  2.33615762E-02, -3.55172234E-05,
                       2.80152958E-08, -8.50075165E-12,  2.64289808E+04,
                       1.39396761E+01]),
                NASA([1000.00, 6000.00],
                     [ 4.65878489E+00,  4.88396667E-03, -1.60828888E-06,
                       2.46974544E-10, -1.38605959E-14,  2.57594042E+04,
                      -3.99838194E+00])),
        transport=gas_transport(geom='linear',
                                diam=4.1,
                                well_depth=209.0,
                                rot_relax=2.5),
        note='acetyleneg1/91')

species(name='C2H4',
        atoms='C:2 H:4',
        thermo=(NASA([200.00, 1000.00],
                     [ 3.95920063E+00, -7.57051373E-03,  5.70989993E-05,
                      -6.91588352E-08,  2.69884190E-11,  5.08977598E+03,
                       4.09730213E+00]),
                NASA([1000.00, 6000.00],
                     [ 3.99182724E+00,  1.04833908E-02, -3.71721342E-06,
                       5.94628366E-10, -3.53630386E-14,  4.26865851E+03,
                      -2.69081762E-01])),
        transport=gas_transport(geom='nonlinear',
                                diam=3.971,
                                well_depth=280.8,
                                rot_relax=1.5),
        note='g1/00')

species(name='C2H6',
        atoms='C:2 H:6',
        thermo=(NASA([200.00, 1000.00],
                     [ 4.29142572E+00, -5.50154901E-03,  5.99438458E-05,
                      -7.08466469E-08,  2.68685836E-11, -1.15222056E+04,
                       2.66678994E+00]),
                NASA([1000.00, 6000.00],
                     [ 4.04666411E+00,  1.53538802E-02, -5.47039485E-06,
                       8.77826544E-10, -5.23167531E-14, -1.24473499E+04,
                      -9.68698313E-01])),
        transport=gas_transport(geom='nonlinear',
                                diam=4.302,
                                well_depth=252.3,
                                rot_relax=1.5),
        note='g8/88')

species(name='C3H4',
        atoms='H:4 C:3',
        thermo=(NASA([200.00, 1000.00],
                     [ 2.61304450E+00,  1.21225750E-02,  1.85398800E-05,
                      -3.45251490E-08,  1.53350790E-11,  2.15415670E+04,
                       1.02261390E+01]),
                NASA([1000.00, 6000.00],
                     [ 6.31687220E+00,  1.11337280E-02, -3.96293780E-06,
                       6.35642380E-10, -3.78755400E-14,  2.01174950E+04,
                      -1.09957660E+01])),
        transport=gas_transport(geom='linear',
                                diam=4.76,
                                well_depth=252.0,
                                rot_relax=1.0))

species(name='C3H6',
        atoms='H:6 C:3',
        thermo=(NASA([300.00, 1000.00],
                     [ 1.45751570E+00,  2.11422630E-02,  4.04680120E-06,
                      -1.63190030E-08,  7.04751530E-12,  1.07402080E+03,
                       1.73994600E+01]),
                NASA([1000.00, 5000.00],
                     [ 6.72139740E+00,  1.49317570E-02, -4.96523530E-06,
                       7.25107530E-10, -3.80014760E-14, -9.24531490E+02,
                      -1.21556170E+01])),
        transport=gas_transport(geom='nonlinear',
                                diam=4.982,
                                well_depth=266.8,
                                rot_relax=1.0))

species(name='C4H2',
        atoms='H:2 C:4',
        thermo=(NASA([200.00, 1000.00],
                     [-3.95185080E-01,  5.19558130E-02, -9.17866160E-05,
                       8.05239290E-08, -2.69170880E-11,  5.14517090E+04,
                       2.09691010E+01]),
                NASA([1000.00, 6000.00],
                     [ 8.66700350E+00,  6.71663710E-03, -2.35449950E-06,
                       3.73830790E-10, -2.21189140E-14,  4.98569330E+04,
                      -2.11142050E+01])),
        transport=gas_transport(geom='linear',
                                diam=5.18,
                                well_depth=357.0,
                                rot_relax=1.0))

species(name='C4H4',
        atoms='C:4 H:4',
        thermo=(NASA([200.00, 1000.00],
                     [ 1.37368786E+00,  2.88801256E-02, -1.46863874E-05,
                      -3.91045446E-09,  4.78133572E-12,  3.30633344E+04,
                       1.75941274E+01]),
                NASA([1000.00, 6000.00],
                     [ 7.98456038E+00,  1.20558816E-02, -4.23587475E-06,
                       6.73646140E-10, -3.99059864E-14,  3.11993029E+04,
                      -1.67958975E+01])),
        transport=gas_transport(geom='nonlinear',
                                diam=5.18,
                                well_depth=357.0,
                                rot_relax=1.0),
        note='1-butene-3T06/04')

species(name='C4H6',
        atoms='C:4 H:6',
        thermo=(NASA([200.00, 1000.00],
                     [ 4.10599669E+00,  5.05575563E-03,  5.83885454E-05,
                      -8.05950198E-08,  3.27447711E-11,  1.15092468E+04,
                       8.42978067E+00]),
                NASA([1000.00, 6000.00],
                     [ 7.62637466E+00,  1.72523403E-02, -6.09184911E-06,
                       9.70800102E-10, -5.76169721E-14,  9.55306395E+03,
                      -1.48325259E+01])),
        transport=gas_transport(geom='nonlinear',
                                diam=5.18,
                                well_depth=357.0,
                                rot_relax=1.0),
        note='1,3-butadienT05/04')

species(name='C4H7',
        atoms='C:4 H:7',
        thermo=(NASA([200.00, 1000.00],
                     [ 4.54746808E+00,  4.63771460E-03,  6.61340221E-05,
                      -8.97456502E-08,  3.61716165E-11,  1.43843217E+04,
                       7.30313471E+00]),
                NASA([1000.00, 6000.00],
                     [ 8.08107449E+00,  1.95526544E-02, -6.93149115E-06,
                       1.10889183E-09, -6.59584410E-14,  1.22822959E+04,
                      -1.67137903E+01])),
        transport=gas_transport(geom='nonlinear',
                                diam=5.18,
                                well_depth=357.0,
                                rot_relax=1.0),
        note='1-meth-allylT05/04')

species(name='C4H8',
        atoms='H:8 C:4',
        thermo=(NASA([300.00, 1000.00],
                     [ 1.18113800E+00,  3.08533800E-02,  5.08652470E-06,
                      -2.46548880E-08,  1.11101930E-11, -1.79040040E+03,
                       2.10756390E+01]),
                NASA([1000.00, 5000.00],
                     [ 2.05358410E+00,  3.43505070E-02, -1.58831970E-05,
                       3.30896620E-09, -2.53610450E-13, -2.13972310E+03,
                       1.55563600E+01])),
        transport=gas_transport(geom='nonlinear',
                                diam=5.176,
                                well_depth=357.0,
                                rot_relax=1.0))

species(name='C3H8',
        atoms='H:8 C:3',
        thermo=(NASA([300.00, 1000.00],
                     [ 9.33553810E-01,  2.64245790E-02,  6.10597270E-06,
                      -2.19774990E-08,  9.51492530E-12, -1.39585200E+04,
                       1.92016910E+01]),
                NASA([1000.00, 5000.00],
                     [ 7.53413680E+00,  1.88722390E-02, -6.27184910E-06,
                       9.14756490E-10, -4.78380690E-14, -1.64675160E+04,
                      -1.78923490E+01])),
        transport=gas_transport(geom='nonlinear',
                                diam=4.982,
                                well_depth=266.8,
                                rot_relax=1.0))

species(name='O2',
        atoms='O:2',
        thermo=(NASA([200.00, 1000.00],
                     [ 3.78245636E+00, -2.99673415E-03,  9.84730200E-06,
                      -9.68129508E-09,  3.24372836E-12, -1.06394356E+03,
                       3.65767573E+00]),
                NASA([1000.00, 6000.00],
                     [ 3.66096083E+00,  6.56365523E-04, -1.41149485E-07,
                       2.05797658E-11, -1.29913248E-15, -1.21597725E+03,
                       3.41536184E+00])),
        transport=gas_transport(geom='linear',
                                diam=3.458,
                                well_depth=107.4,
                                polar=1.6,
                                rot_relax=3.8),
        note='REFELEMENTRUS89')

species(name='C2',
        atoms='C:2',
        thermo=(NASA([200.00, 1000.00],
                     [ 8.64705500E-01,  3.93531200E-02, -1.19818180E-04,
                       1.39081030E-07, -5.52055030E-11,  9.87313030E+04,
                       1.15301410E+01]),
                NASA([1000.00, 6000.00],
                     [ 3.79137060E+00,  5.16504730E-04, -2.54869600E-08,
                      -8.22635540E-12,  1.00861680E-15,  9.90230590E+04,
                       2.81518020E+00])),
        transport=gas_transport(geom='linear',
                                diam=3.621,
                                well_depth=97.53,
                                polar=1.76,
                                rot_relax=4.0))

species(name='H2O',
        atoms='H:2 O:1',
        thermo=(NASA([200.00, 1000.00],
                     [ 4.19863520E+00, -2.03640170E-03,  6.52034160E-06,
                      -5.48792690E-09,  1.77196800E-12, -3.02937260E+04,
                      -8.49009010E-01]),
                NASA([1000.00, 6000.00],
                     [ 2.67703890E+00,  2.97318160E-03, -7.73768890E-07,
                       9.44335140E-11, -4.26899910E-15, -2.98858940E+04,
                       6.88255000E+00])),
        transport=gas_transport(geom='nonlinear',
                                diam=2.605,
                                well_depth=572.4,
                                dipole=1.844,
                                rot_relax=4.0),
        note='L5/89')

species(name='H2O2',
        atoms='H:2 O:2',
        thermo=(NASA([200.00, 1000.00],
                     [ 4.31515149E+00, -8.47390622E-04,  1.76404323E-05,
                      -2.26762944E-08,  9.08950158E-12, -1.77067437E+04,
                       3.27373319E+00]),
                NASA([1000.00, 6000.00],
                     [ 4.57977305E+00,  4.05326003E-03, -1.29844730E-06,
                       1.98211400E-10, -1.13968792E-14, -1.80071775E+04,
                       6.64970694E-01])),
        transport=gas_transport(geom='nonlinear',
                                diam=3.458,
                                well_depth=107.4,
                                rot_relax=3.8),
        note='T8/03')

species(name='CO',
        atoms='C:1 O:1',
        thermo=(NASA([200.00, 1000.00],
                     [ 3.57953350E+00, -6.10353690E-04,  1.01681430E-06,
                       9.07005860E-10, -9.04424490E-13, -1.43440860E+04,
                       3.50840930E+00]),
                NASA([1000.00, 6000.00],
                     [ 3.04848590E+00,  1.35172810E-03, -4.85794050E-07,
                       7.88536440E-11, -4.69807460E-15, -1.42661170E+04,
                       6.01709770E+00])),
        transport=gas_transport(geom='linear',
                                diam=3.65,
                                well_depth=98.1,
                                polar=1.95,
                                rot_relax=1.8),
        note='RUS79')

species(name='CO2',
        atoms='C:1 O:2',
        thermo=(NASA([200.00, 1000.00],
                     [ 2.35681300E+00,  8.98412990E-03, -7.12206320E-06,
                       2.45730080E-09, -1.42885480E-13, -4.83719710E+04,
                       9.90090350E+00]),
                NASA([1000.00, 6000.00],
                     [ 4.63651110E+00,  2.74145690E-03, -9.95897590E-07,
                       1.60386660E-10, -9.16198570E-15, -4.90249040E+04,
                      -1.93489550E+00])),
        transport=gas_transport(geom='linear',
                                diam=3.763,
                                well_depth=244.0,
                                polar=2.65,
                                rot_relax=2.1),
        note='L7/88')

species(name='CH2O',
        atoms='H:2 C:1 O:1',
        thermo=(NASA([200.00, 1000.00],
                     [ 4.79370360E+00, -9.90815180E-03,  3.73214590E-05,
                      -3.79279020E-08,  1.31770150E-11, -1.43089550E+04,
                       6.02887020E-01]),
                NASA([1000.00, 6000.00],
                     [ 3.16948070E+00,  6.19327420E-03, -2.25059810E-06,
                       3.65982450E-10, -2.20154100E-14, -1.44784250E+04,
                       6.04235330E+00])),
        transport=gas_transport(geom='nonlinear',
                                diam=3.59,
                                well_depth=498.0,
                                rot_relax=2.0),
        note='L8/88')

species(name='CH2CO',
        atoms='C:2 H:2 O:1',
        thermo=(NASA([200.00, 1000.00],
                     [ 2.14011650E+00,  1.80883680E-02, -1.73242160E-05,
                       9.27674770E-09, -1.99150110E-12, -7.04305090E+03,
                       1.21986990E+01]),
                NASA([1000.00, 6000.00],
                     [ 5.75779010E+00,  6.34965070E-03, -2.25844070E-06,
                       3.62084620E-10, -2.15690300E-14, -7.97861130E+03,
                      -6.10640370E+00])),
        transport=gas_transport(geom='nonlinear',
                                diam=3.97,
                                well_depth=436.0,
                                rot_relax=2.0),
        note='T6/94')

species(name='CH3CHO',
        atoms='H:4 O:1 C:2',
        thermo=(NASA([200.00, 1000.00],
                     [ 4.72945950E+00, -3.19328580E-03,  4.75349210E-05,
                      -5.74586110E-08,  2.19311120E-11, -2.15728780E+04,
                       4.10301590E+00]),
                NASA([1000.00, 6000.00],
                     [ 5.40411080E+00,  1.17230590E-02, -4.22631370E-06,
                       6.83724510E-10, -4.09848630E-14, -2.25931220E+04,
                      -3.48079170E+00])),
        transport=gas_transport(geom='nonlinear',
                                diam=3.97,
                                well_depth=436.0,
                                rot_relax=2.0))

species(name='C',
        atoms='C:1',
        thermo=(NASA([200.00, 1000.00],
                     [ 2.55423950E+00, -3.21537720E-04,  7.33792230E-07,
                      -7.32234870E-10,  2.66521440E-13,  8.54426810E+04,
                       4.53130850E+00]),
                NASA([1000.00, 6000.00],
                     [ 2.60558300E+00, -1.95934340E-04,  1.06737220E-07,
                      -1.64239400E-11,  8.18705800E-16,  8.54117420E+04,
                       4.19238680E+00])),
        transport=gas_transport(geom='atom',
                                diam=3.298,
                                well_depth=71.4),
        note='L7/88')

species(name='H',
        atoms='H:1',
        thermo=(NASA([200.00, 1000.00],
                     [ 2.50000000E+00,  0.00000000E+00,  0.00000000E+00,
                       0.00000000E+00,  0.00000000E+00,  2.54736600E+04,
                      -4.46682850E-01]),
                NASA([1000.00, 6000.00],
                     [ 2.50000000E+00,  0.00000000E+00,  0.00000000E+00,
                       0.00000000E+00,  0.00000000E+00,  2.54736600E+04,
                      -4.46682850E-01])),
        transport=gas_transport(geom='atom',
                                diam=2.05,
                                well_depth=145.0),
        note='L6/94')

species(name='CH',
        atoms='C:1 H:1',
        thermo=(NASA([200.00, 1000.00],
                     [ 3.48975830E+00,  3.24321600E-04, -1.68997510E-06,
                       3.16284200E-09, -1.40618030E-12,  7.06607550E+04,
                       2.08428410E+00]),
                NASA([1000.00, 6000.00],
                     [ 2.52093690E+00,  1.76536390E-03, -4.61476600E-07,
                       5.92896750E-11, -3.34745010E-15,  7.09948780E+04,
                       7.40518290E+00])),
        transport=gas_transport(geom='linear',
                                diam=2.75,
                                well_depth=80.0),
        note='IU3/03')

species(name='CH2',
        atoms='C:1 H:2',
        thermo=(NASA([200.00, 1000.00],
                     [ 3.71757846E+00,  1.27391260E-03,  2.17347251E-06,
                      -3.48858500E-09,  1.65208866E-12,  4.58723866E+04,
                       1.75297945E+00]),
                NASA([1000.00, 6000.00],
                     [ 3.14631886E+00,  3.03671259E-03, -9.96474439E-07,
                       1.50483580E-10, -8.57335515E-15,  4.60412605E+04,
                       4.72341711E+00])),
        transport=gas_transport(geom='linear',
                                diam=3.8,
                                well_depth=144.0),
        note='TRIPLETIU3/03')

species(name='CH2(S)',
        atoms='C:1 H:2',
        thermo=(NASA([200.00, 1000.00],
                     [ 4.19331325E+00, -2.33105184E-03,  8.15676451E-06,
                      -6.62985981E-09,  1.93233199E-12,  5.03662246E+04,
                      -7.46734310E-01]),
                NASA([1000.00, 6000.00],
                     [ 3.13501686E+00,  2.89593926E-03, -8.16668090E-07,
                       1.13572697E-10, -6.36262835E-15,  5.05040504E+04,
                       4.06030621E+00])),
        transport=gas_transport(geom='linear',
                                diam=3.8,
                                well_depth=144.0),
        note='SINGLETIU3/03')

species(name='CH3',
        atoms='H:3 C:1',
        thermo=(NASA([200.00, 1000.00],
                     [ 3.65717970E+00,  2.12659790E-03,  5.45838830E-06,
                      -6.61810030E-09,  2.46570740E-12,  1.64227160E+04,
                       1.67353540E+00]),
                NASA([1000.00, 6000.00],
                     [ 2.97812060E+00,  5.79785200E-03, -1.97558000E-06,
                       3.07297900E-10, -1.79174160E-14,  1.65095130E+04,
                       4.72247990E+00])),
        transport=gas_transport(geom='linear',
                                diam=3.8,
                                well_depth=144.0))

species(name='C2H',
        atoms='C:2 H:1',
        thermo=(NASA([200.00, 1000.00],
                     [ 2.90180321E+00,  1.32859725E-02, -2.80508233E-05,
                       2.89300812E-08, -1.07446930E-11,  6.71171170E+04,
                       6.17234595E+00]),
                NASA([1000.00, 6000.00],
                     [ 3.66459586E+00,  3.82189487E-03, -1.36509398E-06,
                       2.13253692E-10, -1.23098939E-14,  6.72238503E+04,
                       3.91355399E+00])),
        transport=gas_transport(geom='linear',
                                diam=4.1,
                                well_depth=209.0,
                                rot_relax=2.5),
        note='ETHYNYLRADT07/00')

species(name='C2H3',
        atoms='C:2 H:3',
        thermo=(NASA([200.00, 1000.00],
                     [ 3.36377642E+00,  2.65765722E-04,  2.79620704E-05,
                      -3.72986942E-08,  1.51590176E-11,  3.44749589E+04,
                       7.91510092E+00]),
                NASA([1000.00, 6000.00],
                     [ 4.15026763E+00,  7.54021341E-03, -2.62997847E-06,
                       4.15974048E-10, -2.45407509E-14,  3.38566380E+04,
                       1.72812235E+00])),
        transport=gas_transport(geom='nonlinear',
                                diam=4.1,
                                well_depth=209.0,
                                rot_relax=1.0),
        note='VinylRadiATcT/A')

species(name='C2H5',
        atoms='H:5 C:2',
        thermo=(NASA([200.00, 1000.00],
                     [ 4.30646568E+00, -4.18658892E-03,  4.97142807E-05,
                      -5.99126606E-08,  2.30509004E-11,  1.28416265E+04,
                       4.70720924E+00]),
                NASA([1000.00, 3500.00],
                     [ 1.95465642E+00,  1.73972722E-02, -7.98206668E-06,
                       1.75217689E-09, -1.49641576E-13,  1.28575200E+04,
                       1.34624343E+01])),
        transport=gas_transport(geom='nonlinear',
                                diam=4.302,
                                well_depth=252.3,
                                rot_relax=1.5))

species(name='C3H2',
        atoms='H:2 C:3',
        thermo=(NASA([200.00, 1000.00],
                     [ 3.18167129E+00, -3.37611741E-04,  3.95343765E-05,
                      -5.49792422E-08,  2.28335240E-11,  5.61816758E+04,
                       9.06482468E+00]),
                NASA([1000.00, 6000.00],
                     [ 5.69445684E+00,  6.53821901E-03, -2.35907266E-06,
                       3.82037384E-10, -2.29227460E-14,  5.49264274E+04,
                      -6.96163733E+00])),
        transport=gas_transport(geom='nonlinear',
                                diam=4.1,
                                well_depth=209.0,
                                rot_relax=1.0))

species(name='H2CCCH',
        atoms='H:3 C:3',
        thermo=(NASA([200.00, 1000.00],
                     [ 1.35110927E+00,  3.27411223E-02, -4.73827135E-05,
                       3.76309808E-08, -1.18540923E-11,  3.92663770E+04,
                       1.52058924E+01]),
                NASA([1000.00, 6000.00],
                     [ 7.14221880E+00,  7.61902005E-03, -2.67459950E-06,
                       4.24914801E-10, -2.51475415E-14,  3.80693414E+04,
                      -1.25848435E+01])),
        transport=gas_transport(geom='nonlinear',
                                diam=4.76,
                                well_depth=252.0,
                                rot_relax=1.0))

species(name='H2CCCCH',
        atoms='H:3 C:4',
        thermo=(NASA([298.15, 1000.00],
                     [ 2.41732470E+00,  2.41047820E-02, -1.28134700E-05,
                      -2.86062370E-09,  3.91945270E-12,  5.65064760E+04,
                       1.44711070E+01]),
                NASA([1000.00, 6000.00],
                     [ 8.47620790E+00,  8.87823270E-03, -3.03284120E-06,
                       4.73583020E-10, -2.77166270E-14,  5.47565400E+04,
                      -1.71705510E+01])),
        transport=gas_transport(geom='nonlinear',
                                diam=5.18,
                                well_depth=357.0,
                                rot_relax=1.0))

species(name='C3H5',
        atoms='H:5 C:3',
        thermo=(NASA([200.00, 1000.00],
                     [ 3.11350850E+00,  9.90763750E-03,  3.22193340E-05,
                      -4.96732560E-08,  2.06446380E-11,  1.82618420E+04,
                       1.06902410E+01]),
                NASA([1000.00, 6000.00],
                     [ 7.41036790E+00,  1.27002380E-02, -4.60067840E-06,
                       7.46810500E-10, -4.48759790E-14,  1.63749060E+04,
                      -1.50083170E+01])),
        transport=gas_transport(geom='nonlinear',
                                diam=4.85,
                                well_depth=260.0,
                                rot_relax=1.0))

species(name='i-C4H5',
        atoms='C:4 H:5',
        thermo=(NASA([200.00, 1000.00],
                     [ 4.41575788E+00,  1.36823548E-02,  1.76533170E-05,
                      -3.06168262E-08,  1.27850098E-11,  3.47871254E+04,
                       6.39669972E+00]),
                NASA([1000.00, 6000.00],
                     [ 7.62618778E+00,  1.47321922E-02, -5.22511622E-06,
                       8.36085367E-10, -4.97358383E-14,  3.33816425E+04,
                      -1.26664026E+01])),
        transport=gas_transport(geom='nonlinear',
                                diam=5.18,
                                well_depth=357.0,
                                rot_relax=1.0),
        note='2-Buyn-1ylT10/06')

species(name='O',
        atoms='O:1',
        thermo=(NASA([200.00, 1000.00],
                     [ 3.16826710E+00, -3.27931884E-03,  6.64306396E-06,
                      -6.12806624E-09,  2.11265971E-12,  2.91222592E+04,
                       2.05193346E+00]),
                NASA([1000.00, 6000.00],
                     [ 2.54363697E+00, -2.73162486E-05, -4.19029520E-09,
                       4.95481845E-12, -4.79553694E-16,  2.92260120E+04,
                       4.92229457E+00])),
        transport=gas_transport(geom='atom',
                                diam=2.75,
                                well_depth=80.0),
        note='L1/90')

species(name='OH',
        atoms='H:1 O:1',
        thermo=(NASA([200.00, 1000.00],
                     [ 3.99198424E+00, -2.40106655E-03,  4.61664033E-06,
                      -3.87916306E-09,  1.36319502E-12,  3.36889836E+03,
                      -1.03998477E-01]),