"""
=== Sub-mechanism with Carbon number <= 2 ===

29 OCT 2013
AramcoMech 1.3 Aromatic mech based Kaust PAH mech 2 Ver 1.0

VERSION: AramcoMech 1.3 Aromatic
AUTHORS: W. K. Metcalfe, S. Burke, H. J. Curran
WEBSITE: http://c3.nuigalway.ie/
-----------------------------------------------------------------------------!
AR
HE
-----------------------------------------------------------------------------!
-------------------------------------------------------------------------------!
29 OCT 2013
AramcoMech 1.3 Aromatic mech based Kaust PAH mech 2 Ver 1.0

VERSION: AramcoMech 1.3
AUTHORS: W. K. Metcalfe, S. Burke, H. J. Curran
WEBSITE: http://c3.nuigalway.ie/

"""

units(length='cm', time='s', quantity='mol', act_energy='cal/mol')

ideal_gas(name='gas',
          elements="C H N O",
          species="""H         H2        O         O2        OH
                     H2O       N2        HO2       H2O2      CO
                     CO2       CH2O      HCO       CH3OH     CH2OH
                     CH3O      CH4       CH3       CH2       CH2(S)
                     C2H6      C2H5      C2H4      C2H3      C2H2
                     C2H       CH3CHO    C2H3OH    CH3CO     CH2CHO
                     CH2CO     HCCO      C2H4O1-2  C2H3O1-2  H2CC""",
          reactions='all',
          transport='Mix',
          initial_state=state(temperature=300.0, pressure=OneAtm))

#-------------------------------------------------------------------------------
# Species data
#-------------------------------------------------------------------------------

species(name=u'H',
        atoms='H:1',
        thermo=(NASA([200.00, 1000.00],
                     [ 2.50000000E+00,  0.00000000E+00,  0.00000000E+00,
                       0.00000000E+00,  0.00000000E+00,  2.54736600E+04,
                      -4.46682850E-01]),
                NASA([1000.00, 6000.00],
                     [ 2.50000000E+00,  0.00000000E+00,  0.00000000E+00,
                       0.00000000E+00,  0.00000000E+00,  2.54736600E+04,
                      -4.46682850E-01])),
        transport=gas_transport(geom='atom',
                                diam=2.05,
                                well_depth=145.0),
        note=u'L6/94')

species(name=u'H2',
        atoms='H:2',
        thermo=(NASA([200.00, 1000.00],
                     [ 2.34433112E+00,  7.98052075E-03, -1.94781510E-05,
                       2.01572094E-08, -7.37611761E-12, -9.17935173E+02,
                       6.83010238E-01]),
                NASA([1000.00, 6000.00],
                     [ 2.93286575E+00,  8.26608026E-04, -1.46402364E-07,
                       1.54100414E-11, -6.88804800E-16, -8.13065581E+02,
                      -1.02432865E+00])),
        transport=gas_transport(geom='linear',
                                diam=2.92,
                                well_depth=38.0,
                                polar=0.79,
                                rot_relax=280.0),
        note=u'TPIS78')

species(name=u'O',
        atoms='O:1',
        thermo=(NASA([200.00, 1000.00],
                     [ 3.16826710E+00, -3.27931884E-03,  6.64306396E-06,
                      -6.12806624E-09,  2.11265971E-12,  2.91222592E+04,
                       2.05193346E+00]),
                NASA([1000.00, 6000.00],
                     [ 2.54363697E+00, -2.73162486E-05, -4.19029520E-09,
                       4.95481845E-12, -4.79553694E-16,  2.92260120E+04,
                       4.92229457E+00])),
        transport=gas_transport(geom='atom',
                                diam=2.75,
                                well_depth=80.0),
        note=u'L1/90')

species(name=u'O2',
        atoms='O:2',
        thermo=(NASA([200.00, 1000.00],
                     [ 3.78245636E+00, -2.99673416E-03,  9.84730201E-06,
                      -9.68129509E-09,  3.24372837E-12, -1.06394356E+03,
                       3.65767573E+00]),
                NASA([1000.00, 6000.00],
                     [ 3.66096065E+00,  6.56365811E-04, -1.41149627E-07,
                       2.05797935E-11, -1.29913436E-15, -1.21597718E+03,
                       3.41536279E+00])),
        transport=gas_transport(geom='linear',
                                diam=3.458,
                                well_depth=107.4,
                                polar=1.6,
                                rot_relax=3.8),
        note=u'RUS89')

species(name=u'OH',
        atoms='H:1 O:1',
        thermo=(NASA([200.00, 1000.00],
                     [ 3.99198424E+00, -2.40106655E-03,  4.61664033E-06,
                      -3.87916306E-09,  1.36319502E-12,  3.36889836E+03,
                      -1.03998477E-01]),
                NASA([1000.00, 6000.00],
                     [ 2.83853033E+00,  1.10741289E-03, -2.94000209E-07,
                       4.20698729E-11, -2.42289890E-15,  3.69780808E+03,
                       5.84494652E+00])),
        transport=gas_transport(geom='linear',
                                diam=2.75,
                                well_depth=80.0),
        note=u'IU3/03')

species(name=u'H2O',
        atoms='H:2 O:1',
        thermo=(NASA([200.00, 1000.00],
                     [ 4.19863520E+00, -2.03640170E-03,  6.52034160E-06,
                      -5.48792690E-09,  1.77196800E-12, -3.02937260E+04,
                      -8.49009010E-01]),
                NASA([1000.00, 6000.00],
                     [ 2.67703890E+00,  2.97318160E-03, -7.73768890E-07,
                       9.44335140E-11, -4.26899910E-15, -2.98858940E+04,
                       6.88255000E+00])),
        transport=gas_transport(geom='nonlinear',
                                diam=2.605,
                                well_depth=572.4,
                                dipole=1.844,
                                rot_relax=4.0),
        note=u'L5/89')

species(name=u'N2',
        atoms='N:2',
        thermo=(NASA([200.00, 1000.00],
                     [ 3.53100528E+00, -1.23660988E-04, -5.02999433E-07,
                       2.43530612E-09, -1.40881235E-12, -1.04697628E+03,
                       2.96747038E+00]),
                NASA([1000.00, 6000.00],
                     [ 2.95257637E+00,  1.39690040E-03, -4.92631603E-07,
                       7.86010195E-11, -4.60755204E-15, -9.23948688E+02,
                       5.87188762E+00])),
        transport=gas_transport(geom='linear',
                                diam=3.621,
                                well_depth=97.53,
                                polar=1.76,
                                rot_relax=4.0),
        note=u'G8/02')

species(name=u'HO2',
        atoms='H:1 O:2',
        thermo=(NASA([200.00, 1000.00],
                     [ 4.30179807E+00, -4.74912097E-03,  2.11582905E-05,
                      -2.42763914E-08,  9.29225225E-12,  2.64018485E+02,
                       3.71666220E+00]),
                NASA([1000.00, 5000.00],
                     [ 4.17228741E+00,  1.88117627E-03, -3.46277286E-07,
                       1.94657549E-11,  1.76256905E-16,  3.10206839E+01,
                       2.95767672E+00])),
        transport=gas_transport(geom='nonlinear',
                                diam=3.458,
                                well_depth=107.4,
                                rot_relax=1.0),
        note=u'T1/09')

species(name=u'H2O2',
        atoms='H:2 O:2',
        thermo=(NASA([200.00, 1000.00],
                     [ 4.31515149E+00, -8.47390622E-04,  1.76404323E-05,
                      -2.26762944E-08,  9.08950158E-12, -1.77067437E+04,
                       3.27373319E+00]),
                NASA([1000.00, 6000.00],
                     [ 4.57977305E+00,  4.05326003E-03, -1.29844730E-06,
                       1.98211400E-10, -1.13968792E-14, -1.80071775E+04,
                       6.64970694E-01])),
        transport=gas_transport(geom='nonlinear',
                                diam=3.458,
                                well_depth=107.4,
                                rot_relax=3.8),
        note=u'T8/03')

species(name=u'CO',
        atoms='C:1 O:1',
        thermo=(NASA([200.00, 1000.00],
                     [ 3.57953350E+00, -6.10353690E-04,  1.01681430E-06,
                       9.07005860E-10, -9.04424490E-13, -1.43440860E+04,
                       3.50840930E+00]),
                NASA([1000.00, 6000.00],
                     [ 3.04848590E+00,  1.35172810E-03, -4.85794050E-07,
                       7.88536440E-11, -4.69807460E-15, -1.42661170E+04,
                       6.01709770E+00])),
        transport=gas_transport(geom='linear',
                                diam=3.65,
                                well_depth=98.1,
                                polar=1.95,
                                rot_relax=1.8),
        note=u'RUS79')

species(name=u'CO2',
        atoms='C:1 O:2',
        thermo=(NASA([200.00, 1000.00],
                     [ 2.35681300E+00,  8.98412990E-03, -7.12206320E-06,
                       2.45730080E-09, -1.42885480E-13, -4.83719710E+04,
                       9.90090350E+00]),
                NASA([1000.00, 6000.00],
                     [ 4.63651110E+00,  2.74145690E-03, -9.95897590E-07,
                       1.60386660E-10, -9.16198570E-15, -4.90249040E+04,
                      -1.93489550E+00])),
        transport=gas_transport(geom='linear',
                                diam=3.763,
                                well_depth=244.0,
                                polar=2.65,
                                rot_relax=2.1),
        note=u'L7/88')

species(name=u'CH2O',
        atoms='C:1 H:2 O:1',
        thermo=(NASA([200.00, 1000.00],
                     [ 4.79372312E+00, -9.90833322E-03,  3.73219990E-05,
                      -3.79285237E-08,  1.31772641E-11, -1.43791953E+04,
                       6.02798058E-01]),
                NASA([1000.00, 6000.00],
                     [ 3.16952665E+00,  6.19320560E-03, -2.25056366E-06,
                       3.65975660E-10, -2.20149458E-14, -1.45486831E+04,
                       6.04207898E+00])),
        transport=gas_transport(geom='nonlinear',
                                diam=3.59,
                                well_depth=498.0,
                                rot_relax=2.0),
        note=u'T5/11')

species(name=u'HCO',
        atoms='C:1 H:1 O:1',
        thermo=(NASA([200.00, 1000.00],
                     [ 4.23754610E+00, -3.32075257E-03,  1.40030264E-05,
                      -1.34239995E-08,  4.37416208E-12,  3.87241185E+03,
                       3.30834869E+00]),
                NASA([1000.00, 6000.00],
                     [ 3.92001542E+00,  2.52279324E-03, -6.71004164E-07,
                       1.05615948E-10, -7.43798261E-15,  3.65342928E+03,
                       3.58077056E+00])),
        transport=gas_transport(geom='nonlinear',
                                diam=3.59,
                                well_depth=498.0),
        note=u'T5/03')

species(name=u'CH3OH',
        atoms='C:1 H:4 O:1',
        thermo=(NASA([200.00, 1000.00],
                     [ 5.65851051E+00, -1.62983419E-02,  6.91938156E-05,
                      -7.58372926E-08,  2.80427550E-11, -2.56119736E+04,
                      -8.97330508E-01]),
                NASA([1000.00, 6000.00],
                     [ 3.52726795E+00,  1.03178783E-02, -3.62892944E-06,
                       5.77448016E-10, -3.42182632E-14, -2.60028834E+04,
                       5.16758693E+00])),
        transport=gas_transport(geom='nonlinear',
                                diam=3.626,
                                well_depth=481.8,
                                rot_relax=1.0),
        note=u'T06/02')

species(name=u'CH2OH',
        atoms='C:1 H:3 O:1',
        thermo=(NASA([200.00, 1000.00],
                     [ 4.47834367E+00, -1.35070310E-03,  2.78484980E-05,
                      -3.64869060E-08,  1.47907450E-11, -3.50072890E+03,
                       3.30913500E+00]),
                NASA([1000.00, 6000.00],
                     [ 5.09314370E+00,  5.94761260E-03, -2.06497460E-06,
                       3.23008173E-10, -1.88125902E-14, -4.03409640E+03,
                      -1.84691493E+00])),
        transport=gas_transport(geom='nonlinear',
                                diam=3.69,
                                well_depth=417.0,
                                dipole=1.7,
                                rot_relax=2.0),
        note=u'IU2/03')

species(name=u'CH3O',
        atoms='C:1 H:3 O:1',
        thermo=(NASA([200.00, 1000.00],
                     [ 3.71180502E+00, -2.80463306E-03,  3.76550971E-05,
                      -4.73072089E-08,  1.86588420E-11,  1.29569760E+03,
                       6.57240864E+00]),
                NASA([1000.00, 6000.00],
                     [ 4.75779238E+00,  7.44142474E-03, -2.69705176E-06,
                       4.38090504E-10, -2.63537098E-14,  3.78111940E+02,
                      -1.96680028E+00])),
        transport=gas_transport(geom='nonlinear',
                                diam=3.69,
                                well_depth=417.0,
                                dipole=1.7,
                                rot_relax=2.0),
        note=u'IU1/03')

species(name=u'CH4',
        atoms='C:1 H:4',
        thermo=(NASA([200.00, 1000.00],
                     [ 5.14911468E+00, -1.36622009E-02,  4.91453921E-05,
                      -4.84246767E-08,  1.66603441E-11, -1.02465983E+04,
                      -4.63848842E+00]),
                NASA([1000.00, 6000.00],
                     [ 1.65326226E+00,  1.00263099E-02, -3.31661238E-06,
                       5.36483138E-10, -3.14696758E-14, -1.00095936E+04,
                       9.90506283E+00])),
        transport=gas_transport(geom='nonlinear',
                                diam=3.746,
                                well_depth=141.4,
                                polar=2.6,
                                rot_relax=13.0),
        note=u'G8/99')

species(name=u'CH3',
        atoms='C:1 H:3',
        thermo=(NASA([200.00, 1000.00],
                     [ 3.65717970E+00,  2.12659790E-03,  5.45838830E-06,
                      -6.61810030E-09,  2.46570740E-12,  1.64227160E+04,
                       1.67353540E+00]),
                NASA([1000.00, 6000.00],
                     [ 2.97812060E+00,  5.79785200E-03, -1.97558000E-06,
                       3.07297900E-10, -1.79174160E-14,  1.65095130E+04,
                       4.72247990E+00])),
        transport=gas_transport(geom='linear',
                                diam=3.8,
                                well_depth=144.0),
        note=u'IU0702')

species(name=u'CH2',
        atoms='C:1 H:2',
        thermo=(NASA([200.00, 1000.00],
                     [ 3.71757846E+00,  1.27391260E-03,  2.17347251E-06,
                      -3.48858500E-09,  1.65208866E-12,  4.58723866E+04,
                       1.75297945E+00]),
                NASA([1000.00, 6000.00],
                     [ 3.14631886E+00,  3.03671259E-03, -9.96474439E-07,
                       1.50483580E-10, -8.57335515E-15,  4.60412605E+04,
                       4.72341711E+00])),
        transport=gas_transport(geom='linear',
                                diam=3.8,
                                well_depth=144.0),
        note=u'IU3/03')

species(name=u'CH2(S)',
        atoms='C:1 H:2',
        thermo=(NASA([200.00, 1000.00],
                     [ 4.19331325E+00, -2.33105184E-03,  8.15676451E-06,
                      -6.62985981E-09,  1.93233199E-12,  5.03662246E+04,
                      -7.46734310E-01]),
                NASA([1000.00, 6000.00],
                     [ 3.13501686E+00,  2.89593926E-03, -8.16668090E-07,
                       1.13572697E-10, -6.36262835E-15,  5.05040504E+04,
                       4.06030621E+00])),
        transport=gas_transport(geom='linear',
                                diam=3.8,
                                well_depth=144.0),
        note=u'IU6/03')

species(name=u'C2H6',
        atoms='C:2 H:6',
        thermo=(NASA([200.00, 1000.00],
                     [ 4.29142572E+00, -5.50154901E-03,  5.99438458E-05,
                      -7.08466469E-08,  2.68685836E-11, -1.15222056E+04,
                       2.66678994E+00]),
                NASA([1000.00, 6000.00],
                     [ 4.04666411E+00,  1.53538802E-02, -5.47039485E-06,
                       8.77826544E-10, -5.23167531E-14, -1.24473499E+04,
                      -9.68698313E-01])),
        transport=gas_transport(geom='nonlinear',
                                diam=4.35,
                                well_depth=247.5,
                                rot_relax=1.5),
        note=u'G8/88')

species(name=u'C2H5',
        atoms='C:2 H:5',
        thermo=(NASA([300.00, 1387.00],
                     [ 1.32730217E+00,  1.76656753E-02, -6.14926558E-06,
                      -3.01143466E-10,  4.38617775E-13,  1.34284028E+04,
                       1.71789216E+01]),
                NASA([1387.00, 5000.00],
                     [ 5.88784390E+00,  1.03076793E-02, -3.46844396E-06,
                       5.32499257E-10, -3.06512651E-14,  1.15065499E+04,
                      -8.49651771E+00])),
        transport=gas_transport(geom='nonlinear',
                                diam=4.35,
                                well_depth=247.5,
                                rot_relax=1.5),
        note=u'8/4/4THERM')

species(name=u'C2H4',
        atoms='C:2 H:4',
        thermo=(NASA([200.00, 1000.00],
                     [ 3.95920063E+00, -7.57051373E-03,  5.70989993E-05,
                      -6.91588352E-08,  2.69884190E-11,  5.08977598E+03,
                       4.09730213E+00]),
                NASA([1000.00, 6000.00],
                     [ 3.99182724E+00,  1.04833908E-02, -3.71721342E-06,
                       5.94628366E-10, -3.53630386E-14,  4.26865851E+03,
                      -2.69081762E-01])),
        transport=gas_transport(geom='nonlinear',
                                diam=3.496,
                                well_depth=238.4,
                                rot_relax=1.5),
        note=u'G1/00')

species(name=u'C2H3',
        atoms='C:2 H:3',
        thermo=(NASA([200.00, 1000.00],
                     [ 3.36377642E+00,  2.65765722E-04,  2.79620704E-05,
                      -3.72986942E-08,  1.51590176E-11,  3.44749589E+04,
                       7.91510092E+00]),
                NASA([1000.00, 6000.00],
                     [ 4.15026763E+00,  7.54021341E-03, -2.62997847E-06,
                       4.15974048E-10, -2.45407509E-14,  3.38566380E+04,
                       1.72812235E+00])),
        transport=gas_transport(geom='nonlinear',
                                diam=3.721,
                                well_depth=265.3,
                                rot_relax=1.0),
        note=u'ATCT/A')

species(name=u'C2H2',
        atoms='C:2 H:2',
        thermo=(NASA([200.00, 1000.00],
                     [ 8.08679682E-01,  2.33615762E-02, -3.55172234E-05,
                       2.80152958E-08, -8.50075165E-12,  2.64289808E+04,
                       1.39396761E+01]),
                NASA([1000.00, 6000.00],
                     [ 4.65878489E+00,  4.88396667E-03, -1.60828888E-06,
                       2.46974544E-10, -1.38605959E-14,  2.57594042E+04,
                      -3.99838194E+00])),
        transport=gas_transport(geom='linear',
                                diam=3.721,
                                well_depth=265.3,
                                rot_relax=2.5),
        note=u'G1/91')

species(name=u'C2H',
        atoms='C:2 H:1',
        thermo=(NASA([200.00, 1000.00],
                     [ 2.89867676E+00,  1.32988489E-02, -2.80733327E-05,
                       2.89484755E-08, -1.07502351E-11,  6.70616050E+04,
                       6.18547632E+00]),
                NASA([1000.00, 6000.00],
                     [ 3.66270248E+00,  3.82492252E-03, -1.36632500E-06,
                       2.13455040E-10, -1.23216848E-14,  6.71683790E+04,
                       3.92205792E+00])),
        transport=gas_transport(geom='linear',
                                diam=3.721,
                                well_depth=265.3,
                                rot_relax=2.5),
        note=u'T5/10')

species(name=u'CH3CHO',
        atoms='C:2 H:4 O:1',
        thermo=(NASA([200.00, 1000.00],
                     [ 4.72945950E+00, -3.19328580E-03,  4.75349210E-05,
                      -5.74586110E-08,  2.19311120E-11, -2.15728780E+04,
                       4.10301590E+00]),
                NASA([1000.00, 6000.00],
                     [ 5.40411080E+00,  1.17230590E-02, -4.22631370E-06,
                       6.83724510E-10, -4.09848630E-14, -2.25931220E+04,
                      -3.48079170E+00])),
        transport=gas_transport(geom='nonlinear',
                                diam=3.97,
                                well_depth=436.0,
                                rot_relax=2.0),
        note=u'L8/88')

species(name=u'C2H3OH',
        atoms='C:2 H:4 O:1',
        thermo=(NASA([300.00, 1410.00],
                     [-1.27972260E-01,  3.38506073E-02, -3.30644935E-05,
                       1.64858739E-08, -3.19935455E-12, -1.59914544E+04,
                       2.30438601E+01]),
                NASA([1410.00, 5000.00],
                     [ 8.32598158E+00,  8.03387281E-03, -2.63928405E-06,
                       3.98410726E-10, -2.26551155E-14, -1.83221436E+04,
                      -2.02080305E+01])),
        transport=gas_transport(geom='nonlinear',
                                diam=4.41,
                                well_depth=470.6,
                                rot_relax=1.5),
        note=u'2/3/9THERM')

species(name=u'CH3CO',
        atoms='C:2 H:3 O:1',
        thermo=(NASA([200.00, 1000.00],
                     [ 4.03587050E+00,  8.77294870E-04,  3.07100100E-05,
                      -3.92475650E-08,  1.52968690E-11, -2.68207380E+03,
                       7.86176820E+00]),
                NASA([1000.00, 6000.00],
                     [ 5.31371650E+00,  9.17377930E-03, -3.32203860E-06,
                       5.39474560E-10, -3.24523680E-14, -3.64504140E+03,
                      -1.67575580E+00])),
        transport=gas_transport(geom='nonlinear',
                                diam=3.97,
                                well_depth=436.0,
                                rot_relax=2.0),
        note=u'IU2/03')

species(name=u'CH2CHO',
        atoms='C:2 H:3 O:1',
        thermo=(NASA([200.00, 1000.00],
                     [ 2.79502600E+00,  1.01099472E-02,  1.61750645E-05,
                      -3.10303145E-08,  1.39436139E-11,  1.62944975E+02,
                       1.23646657E+01]),
                NASA([1000.00, 6000.00],
                     [ 6.53928338E+00,  7.80238629E-03, -2.76413612E-06,
                       4.42098906E-10, -2.62954290E-14, -1.18858659E+03,
                      -8.72091393E+00])),
        transport=gas_transport(geom='nonlinear',
                                diam=3.97,
                                well_depth=436.0,
                                rot_relax=2.0),
        note=u'T03/10')

species(name=u'CH2CO',
        atoms='C:2 H:2 O:1',
        thermo=(NASA([300.00, 1000.00],
                     [ 1.81422511E+00,  1.99008590E-02, -2.21416008E-05,
                       1.45028521E-08, -3.98877068E-12, -7.05394926E+03,
                       1.36079359E+01]),
                NASA([1000.00, 5000.00],
                     [ 5.35869367E+00,  6.95641586E-03, -2.64802637E-06,
                       4.65067592E-10, -3.08641820E-14, -7.90294013E+03,
                      -3.98525731E+00])),
        transport=gas_transport(geom='nonlinear',
                                diam=3.97,
                                well_depth=436.0,
                                rot_relax=2.0))

species(name=u'HCCO',
        atoms='C:2 H:1 O:1',
        thermo=(NASA([200.00, 1000.00],
                     [ 1.87607969E+00,  2.21205418E-02, -3.58869325E-05,
                       3.05402541E-08, -1.01281069E-11,  2.01633840E+04,
                       1.36968290E+01]),
                NASA([1000.00, 6000.00],
                     [ 5.91479333E+00,  3.71408730E-03, -1.30137010E-06,
                       2.06473345E-10, -1.21476759E-14,  1.93596301E+04,
                      -5.50567269E+00])),
        transport=gas_transport(geom='nonlinear',
                                diam=2.5,
                                well_depth=150.0,
                                rot_relax=1.0),
        note=u'T4/09')

species(name=u'C2H4O1-2',
        atoms='C:2 H:4 O:1',
        thermo=(NASA([200.00, 1000.00],
                     [ 3.75905320E+00, -9.44121800E-03,  8.03097210E-05,
                      -1.00807880E-07,  4.00399210E-11, -7.56081430E+03,
                       7.84974750E+00]),
                NASA([1000.00, 6000.00],
                     [ 5.48876410E+00,  1.20461900E-02, -4.33369310E-06,
                       7.00283110E-10, -4.19490880E-14, -9.18042510E+03,
                      -7.07996050E+00])),
        transport=gas_transport(geom='nonlinear',
                                diam=3.97,
                                well_depth=436.0,
                                rot_relax=2.0),
        note=u'L8/88')

species(name=u'C2H3O1-2',
        atoms='C:2 H:3 O:1',
        thermo=(NASA([200.00, 1000.00],
                     [ 3.58349017E+00, -6.02275805E-03,  6.32426867E-05,
                      -8.18540707E-08,  3.30444505E-11,  1.85681353E+04,
                       9.59725926E+00]),
                NASA([1000.00, 6000.00],
                     [ 5.60158035E+00,  9.17613962E-03, -3.28028902E-06,
                       5.27903888E-10, -3.15362241E-14,  1.71446252E+04,
                      -5.47228512E+00])),
        transport=gas_transport(geom='nonlinear',
                                diam=3.97,
                                well_depth=436.0,
                                rot_relax=2.0),
        note=u'A1/05')

species(name=u'H2CC',
        atoms='C:2 H:2',
        thermo=(NASA([200.00, 1000.00],
                     [ 3.28154830E+00,  6.97647910E-03, -2.38552440E-06,
                      -1.21044320E-09,  9.81895450E-13,  4.86217940E+04,
                       5.92039100E+00]),
                NASA([1000.00, 6000.00],
                     [ 4.27803400E+00,  4.75628040E-03, -1.63010090E-06,
                       2.54628060E-10, -1.48863790E-14,  4.83166880E+04,
                       6.40237010E-01])),
        transport=gas_transport(geom='nonlinear',
                                diam=4.1,
                                well_depth=209.0,
                                rot_relax=2.5),
        note=u'L12/89')

#-------------------------------------------------------------------------------
# Reaction data
#-------------------------------------------------------------------------------
# R1

# Reaction 1
reaction('H + O2 <=> O + OH', [1.040000e+14, 0.0, 15286.0])
# R2

# Reaction 2
reaction('O + H2 <=> H + OH', [5.080000e+04, 2.67, 6292.0])
# R3

# Reaction 3
reaction('OH + H2 <=> H + H2O', [4.380000e+13, 0.0, 6990.0])
# R4

# Reaction 4
reaction('O + H2O <=> 2 OH', [2.970000e+06, 2.02, 13400.0])
# R5

# Reaction 5
three_body_reaction('H2 + M <=> 2 H + M', [4.577000e+19, -1.4, 104400.0],
                    efficiencies='C2H6:3.0 CH4:2.0 CO:1.9 CO2:3.8 H2:2.5 H2O:12.0')
# R6

# Reaction 6
three_body_reaction('2 O + M <=> O2 + M', [6.165000e+15, -0.5, 0.0],
                    efficiencies='C2H6:3.0 CH4:2.0 CO:1.9 CO2:3.8 H2:2.5 H2O:12.0')
# R7

# Reaction 7
three_body_reaction('O + H + M <=> OH + M', [4.714000e+18, -1.0, 0.0],
                    efficiencies='C2H6:3.0 CH4:2.0 CO:1.5 CO2:2.0 H2:2.5 H2O:12.0')
# R8

# Reaction 8
three_body_reaction('H + OH + M <=> H2O + M', [3.500000e+22, -2.0, 0.0],
                    efficiencies='C2H6:3.0 CH4:2.0 H2:0.73 H2O:3.65')
# R9

# Reaction 9
falloff_reaction('H + O2 (+ M) <=> HO2 (+ M)',
                 kf=[4.650000e+12, 0.44, 0.0],
                 kf0=[1.737000e+19, -1.23, 0.0],
                 efficiencies='C2H6:3.0 CH4:2.0 CO:1.9 CO2:3.8 H2:1.3 H2O:10.0',
                 falloff=Troe(A=0.67, T3=1e-30, T1=1e+30, T2=1e+30))
# R10

# Reaction 10
reaction('HO2 + H <=> 2 OH', [7.079000e+13, 0.0, 295.0])
# R11

# Reaction 11
reaction('H2 + O2 <=> H + HO2', [5.176000e+05, 2.433, 53502.0])
# R12

# Reaction 12
reaction('HO2 + O <=> OH + O2', [3.250000e+13, 0.0, 0.0])
# R13

# Reaction 13
reaction('HO2 + OH <=> H2O + O2', [2.456000e+13, 0.0, -497.0])
# R14

# Reaction 14
reaction('2 HO2 <=> H2O2 + O2', [1.300000e+11, 0.0, -1630.0],
         options='duplicate')
# R15

# Reaction 15
reaction('2 HO2 <=> H2O2 + O2', [3.658000e+14, 0.0, 12000.0],
         options='duplicate')
# R16

# Reaction 16
falloff_reaction('H2O2 (+ H2O) <=> 2 OH (+ H2O)',
                 kf=[2.000000e+12, 0.9, 48749.0],
                 kf0=[1.865000e+25, -2.3, 48749.0],
                 falloff=Troe(A=0.51, T3=1e-30, T1=1e+30))
# R17

# Reaction 17
falloff_reaction('H2O2 (+ M) <=> 2 OH (+ M)',
                 kf=[2.000000e+12, 0.9, 48749.0],
                 kf0=[2.490000e+24, -2.3, 48749.0],
                 efficiencies='CO:2.8 CO2:1.6 H2:3.7 H2O:0.0 H2O2:7.7 N2:1.5 O2:1.2',
                 falloff=Troe(A=0.43, T3=1e-30, T1=1e+30))
# R18

# Reaction 18
reaction('H2O2 + H <=> H2O + OH', [2.410000e+13, 0.0, 3970.0])
# R19

# Reaction 19
reaction('H2O2 + H <=> H2 + HO2', [2.150000e+10, 1.0, 6000.0])
# R20

# Reaction 20
reaction('H2O2 + O <=> OH + HO2', [9.550000e+06, 2.0, 3970.0])
# R21

# Reaction 21
reaction('H2O2 + OH <=> H2O + HO2', [1.740000e+12, 0.0, 318.0],
         options='duplicate')
# R22

# Reaction 22
reaction('H2O2 + OH <=> H2O + HO2', [7.590000e+13, 0.0, 7269.0],
         options='duplicate')
# R23

# Reaction 23
falloff_reaction('CO + O (+ M) <=> CO2 (+ M)',
                 kf=[1.362000e+10, 0.0, 2384.0],
                 kf0=[1.173000e+24, -2.79, 4191.0],