units(length='cm', time='s', quantity='mol', act_energy='cal/mol')

ideal_gas(name='gas',
          elements="H O C N Ar",
          species="""H2       CH4      C2H2     C2H4     C2H6     C3H4
                     C3H6     C4H2     C4H4     C4H6     C4H7     C4H8
                     C3H8     O2       C2       H2O      H2O2     CO
                     CO2      CH2O     CH2CO    CH3CHO   C        H
                     CH       CH2      CH2(S)   CH3      C2H      C2H3
                     C2H5     C3H2     H2CCCH   H2CCCCH  C3H5     i-C4H5
                     O        OH       HO2      HCO      CH3O     CH2OH
                     HCCO     CH2HCO   CH3CO    N2       AR       A1
                     A1-      C6H5OH   C6H5O    C5H5     C5H6     A1C2H
                     C7H8     A1C2H3   A1C2H3*  n-C8H7   C7H7     A1C2H-
                     A2       A2-      INDENE   INDENYL  P2       P2-
                     A2C2H*   A2R5     A2C2H    A2R5-    A3       A3-
                     A4       A4-      C18H12   C18H11   A3C2H    A3C2H*
                     C4H      C4       C6H2     C8H2     C6H      C8H
                     A4C2H    A4C2H*   BAPYR*S  BGHIF    BAPYR    A2CH3
                     A2CH2    A3CH3    A3CH2""",
          reactions='all',
          transport='Mix',
          initial_state=state(temperature=300.0, pressure=OneAtm))

#-------------------------------------------------------------------------------
# Species data
#-------------------------------------------------------------------------------

species(name=u'H2',
        atoms='H:2',
        thermo=(NASA([200.00, 1000.00],
                     [ 2.34433112E+00,  7.98052075E-03, -1.94781510E-05,
                       2.01572094E-08, -7.37611761E-12, -9.17935173E+02,
                       6.83010238E-01]),
                NASA([1000.00, 3500.00],
                     [ 3.33727920E+00, -4.94024731E-05,  4.99456778E-07,
                      -1.79566394E-10,  2.00255376E-14, -9.50158922E+02,
                      -3.20502331E+00])),
        transport=gas_transport(geom='linear',
                                diam=2.92,
                                well_depth=38.0,
                                polar=0.79,
                                rot_relax=280.0))

species(name=u'CH4',
        atoms='C:1 H:4',
        thermo=(NASA([200.00, 1000.00],
                     [ 5.14987613E+00, -1.36709788E-02,  4.91800599E-05,
                      -4.84743026E-08,  1.66693956E-11, -1.02466476E+04,
                      -4.64130376E+00]),
                NASA([1000.00, 3500.00],
                     [ 7.48514950E-02,  1.33909467E-02, -5.73285809E-06,
                       1.22292535E-09, -1.01815230E-13, -9.46834459E+03,
                       1.84373180E+01])),
        transport=gas_transport(geom='nonlinear',
                                diam=3.746,
                                well_depth=141.4,
                                polar=2.6,
                                rot_relax=13.0))

species(name=u'C2H2',
        atoms='C:2 H:2',
        thermo=(NASA([200.00, 1000.00],
                     [ 8.08681094E-01,  2.33615629E-02, -3.55171815E-05,
                       2.80152437E-08, -8.50072974E-12,  2.64289807E+04,
                       1.39397051E+01]),
                NASA([1000.00, 3500.00],
                     [ 4.14756964E+00,  5.96166664E-03, -2.37294852E-06,
                       4.67412171E-10, -3.61235213E-14,  2.59359992E+04,
                      -1.23028121E+00])),
        transport=gas_transport(geom='linear',
                                diam=4.1,
                                well_depth=209.0,
                                rot_relax=2.5))

species(name=u'C2H4',
        atoms='C:2 H:4',
        thermo=(NASA([200.00, 1000.00],
                     [ 3.95920148E+00, -7.57052247E-03,  5.70990292E-05,
                      -6.91588753E-08,  2.69884373E-11,  5.08977593E+03,
                       4.09733096E+00]),
                NASA([1000.00, 3500.00],
                     [ 2.03611116E+00,  1.46454151E-02, -6.71077915E-06,
                       1.47222923E-09, -1.25706061E-13,  4.93988614E+03,
                       1.03053693E+01])),
        transport=gas_transport(geom='nonlinear',
                                diam=3.971,
                                well_depth=280.8,
                                rot_relax=1.5))

species(name=u'C2H6',
        atoms='C:2 H:6',
        thermo=(NASA([200.00, 1000.00],
                     [ 4.29142492E+00, -5.50154270E-03,  5.99438288E-05,
                      -7.08466285E-08,  2.68685771E-11, -1.15222055E+04,
                       2.66682316E+00]),
                NASA([1000.00, 3500.00],
                     [ 1.07188150E+00,  2.16852677E-02, -1.00256067E-05,
                       2.21412001E-09, -1.90002890E-13, -1.14263932E+04,
                       1.51156107E+01])),
        transport=gas_transport(geom='nonlinear',
                                diam=4.302,
                                well_depth=252.3,
                                rot_relax=1.5))

species(name=u'C3H4',
        atoms='C:3 H:4',
        thermo=(NASA([200.00, 1000.00],
                     [ 2.61304450E+00,  1.21225750E-02,  1.85398800E-05,
                      -3.45251490E-08,  1.53350790E-11,  2.15415670E+04,
                       1.02261390E+01]),
                NASA([1000.00, 6000.00],
                     [ 6.31687220E+00,  1.11337280E-02, -3.96293780E-06,
                       6.35642380E-10, -3.78755400E-14,  2.01174950E+04,
                      -1.09957660E+01])),
        transport=gas_transport(geom='linear',
                                diam=4.29,
                                well_depth=324.8,
                                rot_relax=1.0))

species(name=u'C3H6',
        atoms='C:3 H:6',
        thermo=(NASA([300.00, 1000.00],
                     [ 1.45751570E+00,  2.11422630E-02,  4.04680120E-06,
                      -1.63190030E-08,  7.04751530E-12,  1.07402080E+03,
                       1.73994600E+01]),
                NASA([1000.00, 5000.00],
                     [ 6.72139740E+00,  1.49317570E-02, -4.96523530E-06,
                       7.25107530E-10, -3.80014760E-14, -9.24531490E+02,
                      -1.21556170E+01])),
        transport=gas_transport(geom='nonlinear',
                                diam=4.982,
                                well_depth=266.8,
                                rot_relax=1.0))

species(name=u'C4H2',
        atoms='C:4 H:2',
        thermo=(NASA([200.00, 1000.00],
                     [-3.95185080E-01,  5.19558130E-02, -9.17866160E-05,
                       8.05239290E-08, -2.69170880E-11,  5.14517090E+04,
                       2.09691010E+01]),
                NASA([1000.00, 6000.00],
                     [ 8.66700350E+00,  6.71663710E-03, -2.35449950E-06,
                       3.73830790E-10, -2.21189140E-14,  4.98569330E+04,
                      -2.11142050E+01])),
        transport=gas_transport(geom='linear',
                                diam=5.18,
                                well_depth=357.0,
                                rot_relax=1.0))

species(name=u'C4H4',
        atoms='C:4 H:4',
        thermo=(NASA([300.00, 1000.00],
                     [ 4.64959610E-01,  3.65219580E-02, -3.39858250E-05,
                       1.71332920E-08, -3.46302140E-12,  3.27240800E+04,
                       2.13770460E+01]),
                NASA([1000.00, 3000.00],
                     [ 9.17782070E+00,  1.00180750E-02, -2.71673310E-06,
                       1.71921780E-10,  2.02798920E-14,  3.03838120E+04,
                      -2.31569640E+01])),
        transport=gas_transport(geom='nonlinear',
                                diam=5.18,
                                well_depth=357.0,
                                rot_relax=1.0))

species(name=u'C4H6',
        atoms='C:4 H:6',
        thermo=(NASA([300.00, 1000.00],
                     [-2.31982950E+00,  5.34774860E-02, -5.41955950E-05,
                       3.12145590E-08, -7.72820600E-12,  1.18658910E+04,
                       3.22105730E+01]),
                NASA([1000.00, 3000.00],
                     [ 9.22554070E+00,  1.62662510E-02, -6.02427430E-06,
                       1.05487300E-09, -7.39758080E-14,  8.87810650E+03,
                      -2.62767730E+01])),
        transport=gas_transport(geom='nonlinear',
                                diam=5.18,
                                well_depth=357.0,
                                rot_relax=1.0))

species(name=u'C4H7',
        atoms='C:4 H:7',
        thermo=(NASA([300.00, 1000.00],
                     [-1.08051400E+00,  4.63868600E-02, -3.46469700E-05,
                       1.40137400E-08, -2.39504000E-12,  1.37553800E+04,
                       2.93315000E+01]),
                NASA([1000.00, 3000.00],
                     [ 5.52142000E+00,  2.68368400E-02, -1.28643000E-05,
                       3.08864000E-09, -3.03085600E-13,  1.19804400E+04,
                      -4.49564000E+00])),
        transport=gas_transport(geom='nonlinear',
                                diam=4.65,
                                well_depth=355.0,
                                rot_relax=1.0))

species(name=u'C4H8',
        atoms='C:4 H:8',
        thermo=(NASA([300.00, 1000.00],
                     [ 1.18113800E+00,  3.08533800E-02,  5.08652470E-06,
                      -2.46548880E-08,  1.11101930E-11, -1.79040040E+03,
                       2.10756390E+01]),
                NASA([1000.00, 5000.00],
                     [ 2.05358410E+00,  3.43505070E-02, -1.58831970E-05,
                       3.30896620E-09, -2.53610450E-13, -2.13972310E+03,
                       1.55563600E+01])),
        transport=gas_transport(geom='nonlinear',
                                diam=4.65,
                                well_depth=355.0,
                                rot_relax=1.0))

species(name=u'C3H8',
        atoms='C:3 H:8',
        thermo=(NASA([300.00, 1000.00],
                     [ 9.33553810E-01,  2.64245790E-02,  6.10597270E-06,
                      -2.19774990E-08,  9.51492530E-12, -1.39585200E+04,
                       1.92016910E+01]),
                NASA([1000.00, 5000.00],
                     [ 7.53413680E+00,  1.88722390E-02, -6.27184910E-06,
                       9.14756490E-10, -4.78380690E-14, -1.64675160E+04,
                      -1.78923490E+01])),
        transport=gas_transport(geom='nonlinear',
                                diam=4.982,
                                well_depth=266.8,
                                rot_relax=1.0))

species(name=u'O2',
        atoms='O:2',
        thermo=(NASA([200.00, 1000.00],
                     [ 3.78245636E+00, -2.99673416E-03,  9.84730201E-06,
                      -9.68129509E-09,  3.24372837E-12, -1.06394356E+03,
                       3.65767573E+00]),
                NASA([1000.00, 3500.00],
                     [ 3.28253784E+00,  1.48308754E-03, -7.57966669E-07,
                       2.09470555E-10, -2.16717794E-14, -1.08845772E+03,
                       5.45323129E+00])),
        transport=gas_transport(geom='linear',
                                diam=3.458,
                                well_depth=107.4,
                                polar=1.6,
                                rot_relax=3.8))

species(name=u'C2',
        atoms='C:2',
        thermo=(NASA([200.00, 1000.00],
                     [ 8.64705500E-01,  3.93531200E-02, -1.19818180E-04,
                       1.39081030E-07, -5.52055030E-11,  9.87313030E+04,
                       1.15301410E+01]),
                NASA([1000.00, 6000.00],
                     [ 3.79137060E+00,  5.16504730E-04, -2.54869600E-08,
                      -8.22635540E-12,  1.00861680E-15,  9.90230590E+04,
                       2.81518020E+00])),
        transport=gas_transport(geom='linear',
                                diam=3.621,
                                well_depth=97.53,
                                polar=1.76,
                                rot_relax=4.0))

species(name=u'H2O',
        atoms='H:2 O:1',
        thermo=(NASA([200.00, 1000.00],
                     [ 4.19864056E+00, -2.03643410E-03,  6.52040211E-06,
                      -5.48797062E-09,  1.77197817E-12, -3.02937267E+04,
                      -8.49032208E-01]),
                NASA([1000.00, 3500.00],
                     [ 3.03399249E+00,  2.17691804E-03, -1.64072518E-07,
                      -9.70419870E-11,  1.68200992E-14, -3.00042971E+04,
                       4.96677010E+00])),
        transport=gas_transport(geom='nonlinear',
                                diam=2.605,
                                well_depth=572.4,
                                dipole=1.844,
                                rot_relax=4.0))

species(name=u'H2O2',
        atoms='H:2 O:2',
        thermo=(NASA([200.00, 1000.00],
                     [ 4.27611269E+00, -5.42822417E-04,  1.67335701E-05,
                      -2.15770813E-08,  8.62454363E-12, -1.77025821E+04,
                       3.43505074E+00]),
                NASA([1000.00, 3500.00],
                     [ 4.16500285E+00,  4.90831694E-03, -1.90139225E-06,
                       3.71185986E-10, -2.87908305E-14, -1.78617877E+04,
                       2.91615662E+00])),
        transport=gas_transport(geom='nonlinear',
                                diam=3.458,
                                well_depth=107.4,
                                rot_relax=3.8))

species(name=u'CO',
        atoms='C:1 O:1',
        thermo=(NASA([200.00, 1000.00],
                     [ 3.57953347E+00, -6.10353680E-04,  1.01681433E-06,
                       9.07005884E-10, -9.04424499E-13, -1.43440860E+04,
                       3.50840928E+00]),
                NASA([1000.00, 3500.00],
                     [ 2.71518561E+00,  2.06252743E-03, -9.98825771E-07,
                       2.30053008E-10, -2.03647716E-14, -1.41518724E+04,
                       7.81868772E+00])),
        transport=gas_transport(geom='linear',
                                diam=3.65,
                                well_depth=98.1,
                                polar=1.95,
                                rot_relax=1.8))

species(name=u'CO2',
        atoms='C:1 O:2',
        thermo=(NASA([200.00, 1000.00],
                     [ 2.35677352E+00,  8.98459677E-03, -7.12356269E-06,
                       2.45919022E-09, -1.43699548E-13, -4.83719697E+04,
                       9.90105222E+00]),
                NASA([1000.00, 3500.00],
                     [ 3.85746029E+00,  4.41437026E-03, -2.21481404E-06,
                       5.23490188E-10, -4.72084164E-14, -4.87591660E+04,
                       2.27163806E+00])),
        transport=gas_transport(geom='linear',
                                diam=3.763,
                                well_depth=244.0,
                                polar=2.65,
                                rot_relax=2.1))

species(name=u'CH2O',
        atoms='C:1 H:2 O:1',
        thermo=(NASA([200.00, 1000.00],
                     [ 4.79372315E+00, -9.90833369E-03,  3.73220008E-05,
                      -3.79285261E-08,  1.31772652E-11, -1.43089567E+04,
                       6.02812900E-01]),
                NASA([1000.00, 3500.00],
                     [ 1.76069008E+00,  9.20000082E-03, -4.42258813E-06,
                       1.00641212E-09, -8.83855640E-14, -1.39958323E+04,
                       1.36563230E+01])),
        transport=gas_transport(geom='nonlinear',
                                diam=3.59,
                                well_depth=498.0,
                                rot_relax=2.0))

species(name=u'CH2CO',
        atoms='C:2 H:2 O:1',
        thermo=(NASA([200.00, 1000.00],
                     [ 2.13583630E+00,  1.81188721E-02, -1.73947474E-05,
                       9.34397568E-09, -2.01457615E-12, -7.04291804E+03,
                       1.22156480E+01]),
                NASA([1000.00, 3500.00],
                     [ 4.51129732E+00,  9.00359745E-03, -4.16939635E-06,
                       9.23345882E-10, -7.94838201E-14, -7.55105311E+03,
                       6.32247205E-01])),
        transport=gas_transport(geom='nonlinear',
                                diam=3.97,
                                well_depth=436.0,
                                rot_relax=2.0))

species(name=u'CH3CHO',
        atoms='C:2 H:4 O:1',
        thermo=(NASA([200.00, 1000.00],
                     [ 4.72945950E+00, -3.19328580E-03,  4.75349210E-05,
                      -5.74586110E-08,  2.19311120E-11, -2.15728780E+04,
                       4.10301590E+00]),
                NASA([1000.00, 6000.00],
                     [ 5.40411080E+00,  1.17230590E-02, -4.22631370E-06,
                       6.83724510E-10, -4.09848630E-14, -2.25931220E+04,
                      -3.48079170E+00])),
        transport=gas_transport(geom='nonlinear',
                                diam=3.97,
                                well_depth=436.0,
                                rot_relax=2.0))

species(name=u'C',
        atoms='C:1',
        thermo=(NASA([200.00, 1000.00],
                     [ 2.55423955E+00, -3.21537724E-04,  7.33792245E-07,
                      -7.32234889E-10,  2.66521446E-13,  8.54438832E+04,
                       4.53130848E+00]),
                NASA([1000.00, 3500.00],
                     [ 2.49266888E+00,  4.79889284E-05, -7.24335020E-08,
                       3.74291029E-11, -4.87277893E-15,  8.54512953E+04,
                       4.80150373E+00])),
        transport=gas_transport(geom='atom',
                                diam=3.298,
                                well_depth=71.4))

species(name=u'H',
        atoms='H:1',
        thermo=(NASA([200.00, 1000.00],
                     [ 2.50000000E+00,  7.05332819E-13, -1.99591964E-15,
                       2.30081632E-18, -9.27732332E-22,  2.54736599E+04,
                      -4.46682853E-01]),
                NASA([1000.00, 3500.00],
                     [ 2.50000001E+00, -2.30842973E-11,  1.61561948E-14,
                      -4.73515235E-18,  4.98197357E-22,  2.54736599E+04,
                      -4.46682914E-01])),
        transport=gas_transport(geom='atom',
                                diam=2.05,
                                well_depth=145.0))

species(name=u'CH',
        atoms='C:1 H:1',
        thermo=(NASA([200.00, 1000.00],
                     [ 3.48981665E+00,  3.23835541E-04, -1.68899065E-06,
                       3.16217327E-09, -1.40609067E-12,  7.07972934E+04,
                       2.08401108E+00]),
                NASA([1000.00, 3500.00],
                     [ 2.87846473E+00,  9.70913681E-04,  1.44445655E-07,
                      -1.30687849E-10,  1.76079383E-14,  7.10124364E+04,
                       5.48497999E+00])),
        transport=gas_transport(geom='linear',
                                diam=2.75,
                                well_depth=80.0))

species(name=u'CH2',
        atoms='C:1 H:2',
        thermo=(NASA([200.00, 1000.00],
                     [ 3.76267867E+00,  9.68872143E-04,  2.79489841E-06,
                      -3.85091153E-09,  1.68741719E-12,  4.60040401E+04,
                       1.56253185E+00]),
                NASA([1000.00, 3500.00],
                     [ 2.87410113E+00,  3.65639292E-03, -1.40894597E-06,
                       2.60179549E-10, -1.87727567E-14,  4.62636040E+04,
                       6.17119324E+00])),
        transport=gas_transport(geom='linear',
                                diam=3.8,
                                well_depth=144.0))

species(name=u'CH2(S)',
        atoms='C:1 H:2',
        thermo=(NASA([200.00, 1000.00],
                     [ 4.19860411E+00, -2.36661419E-03,  8.23296220E-06,
                      -6.68815981E-09,  1.94314737E-12,  5.04968163E+04,
                      -7.69118967E-01]),
                NASA([1000.00, 3500.00],
                     [ 2.29203842E+00,  4.65588637E-03, -2.01191947E-06,
                       4.17906000E-10, -3.39716365E-14,  5.09259997E+04,
                       8.62650169E+00])),
        transport=gas_transport(geom='linear',
                                diam=3.8,
                                well_depth=144.0))

species(name=u'CH3',
        atoms='C:1 H:3',
        thermo=(NASA([200.00, 1000.00],
                     [ 3.65717970E+00,  2.12659790E-03,  5.45838830E-06,
                      -6.61810030E-09,  2.46570740E-12,  1.64227160E+04,
                       1.67353540E+00]),
                NASA([1000.00, 6000.00],
                     [ 2.97812060E+00,  5.79785200E-03, -1.97558000E-06,
                       3.07297900E-10, -1.79174160E-14,  1.65095130E+04,
                       4.72247990E+00])),
        transport=gas_transport(geom='linear',
                                diam=3.8,
                                well_depth=144.0))

species(name=u'C2H',
        atoms='C:2 H:1',
        thermo=(NASA([200.00, 1000.00],
                     [ 2.88965733E+00,  1.34099611E-02, -2.84769501E-05,
                       2.94791045E-08, -1.09331511E-11,  6.68393932E+04,
                       6.22296438E+00]),
                NASA([1000.00, 3500.00],
                     [ 3.16780652E+00,  4.75221902E-03, -1.83787077E-06,
                       3.04190252E-10, -1.77232770E-14,  6.71210650E+04,
                       6.63589475E+00])),
        transport=gas_transport(geom='linear',
                                diam=4.1,
                                well_depth=209.0,
                                rot_relax=2.5))

species(name=u'C2H3',
        atoms='C:2 H:3',
        thermo=(NASA([200.00, 1000.00],
                     [ 3.21246645E+00,  1.51479162E-03,  2.59209412E-05,
                      -3.57657847E-08,  1.47150873E-11,  3.48598468E+04,
                       8.51054025E+00]),
                NASA([1000.00, 3500.00],
                     [ 3.01672400E+00,  1.03302292E-02, -4.68082349E-06,
                       1.01763288E-09, -8.62607041E-14,  3.46128739E+04,
                       7.78732378E+00])),
        transport=gas_transport(geom='nonlinear',
                                diam=4.1,
                                well_depth=209.0,
                                rot_relax=1.0))

species(name=u'C2H5',
        atoms='C:2 H:5',
        thermo=(NASA([200.00, 1000.00],
                     [ 4.30646568E+00, -4.18658892E-03,  4.97142807E-05,
                      -5.99126606E-08,  2.30509004E-11,  1.28416265E+04,
                       4.70720924E+00]),
                NASA([1000.00, 3500.00],
                     [ 1.95465642E+00,  1.73972722E-02, -7.98206668E-06,
                       1.75217689E-09, -1.49641576E-13,  1.28575200E+04,
                       1.34624343E+01])),
        transport=gas_transport(geom='nonlinear',
                                diam=4.302,
                                well_depth=252.3,
                                rot_relax=1.5))

species(name=u'C3H2',
        atoms='C:3 H:2',
        thermo=(NASA([200.00, 1000.00],
                     [ 3.18167129E+00, -3.37611741E-04,  3.95343765E-05,
                      -5.49792422E-08,  2.28335240E-11,  5.61816758E+04,
                       9.06482468E+00]),
                NASA([1000.00, 6000.00],
                     [ 5.69445684E+00,  6.53821901E-03, -2.35907266E-06,
                       3.82037384E-10, -2.29227460E-14,  5.49264274E+04,
                      -6.96163733E+00])),
        transport=gas_transport(geom='nonlinear',
                                diam=4.1,
                                well_depth=209.0,
                                rot_relax=1.0))

species(name=u'H2CCCH',
        atoms='C:3 H:3',
        thermo=(NASA([200.00, 1000.00],
                     [ 1.35110927E+00,  3.27411223E-02, -4.73827135E-05,
                       3.76309808E-08, -1.18540923E-11,  3.92663770E+04,
                       1.52058924E+01]),
                NASA([1000.00, 6000.00],
                     [ 7.14221880E+00,  7.61902005E-03, -2.67459950E-06,
                       4.24914801E-10, -2.51475415E-14,  3.80693414E+04,
                      -1.25848435E+01])),
        transport=gas_transport(geom='nonlinear',
                                diam=4.76,
                                well_depth=252.0,
                                rot_relax=1.0))

species(name=u'H2CCCCH',
        atoms='C:4 H:3',
        thermo=(NASA([298.15, 1000.00],
                     [ 2.41732470E+00,  2.41047820E-02, -1.28134700E-05,
                      -2.86062370E-09,  3.91945270E-12,  5.65064760E+04,
                       1.44711070E+01]),
                NASA([1000.00, 6000.00],
                     [ 8.47620790E+00,  8.87823270E-03, -3.03284120E-06,
                       4.73583020E-10, -2.77166270E-14,  5.47565400E+04,
                      -1.71705510E+01])),
        transport=gas_transport(geom='nonlinear',
                                diam=4.72,
                                well_depth=357.1,
                                rot_relax=1.0))

species(name=u'C3H5',
        atoms='C:3 H:5',
        thermo=(NASA([200.00, 1000.00],
                     [ 3.11350850E+00,  9.90763750E-03,  3.22193340E-05,
                      -4.96732560E-08,  2.06446380E-11,  1.82618420E+04,
                       1.06902410E+01]),
                NASA([1000.00, 6000.00],
                     [ 7.41036790E+00,  1.27002380E-02, -4.60067840E-06,
                       7.46810500E-10, -4.48759790E-14,  1.63749060E+04,
                      -1.50083170E+01])),
        transport=gas_transport(geom='nonlinear',
                                diam=4.85,
                                well_depth=260.0,
                                rot_relax=1.0))

species(name=u'i-C4H5',
        atoms='C:4 H:5',
        thermo=(NASA([300.00, 1000.00],
                     [ 1.02514000E+01, -2.56276700E-02,  1.07150900E-04,
                      -1.10901900E-07,  3.75500500E-11,  3.71285500E+04,
                      -2.05745300E+01]),
                NASA([1000.00, 3000.00],
                     [ 7.25591800E+00,  1.71413100E-02, -7.43504500E-06,
                       1.64105200E-09, -1.53607800E-13,  3.63398600E+04,
                      -1.34205800E+01])),
        transport=gas_transport(geom='nonlinear',
                                diam=5.18,
                                well_depth=357.0,
                                rot_relax=1.0))

species(name=u'O',
        atoms='O:1',
        thermo=(NASA([200.00, 1000.00],
                     [ 3.16826710E+00, -3.27931884E-03,  6.64306396E-06,
                      -6.12806624E-09,  2.11265971E-12,  2.91222592E+04,
                       2.05193346E+00]),
                NASA([1000.00, 3500.00],
                     [ 2.56942078E+00, -8.59741137E-05,  4.19484589E-08,
                      -1.00177799E-11,  1.22833691E-15,  2.92175791E+04,
                       4.78433864E+00])),
        transport=gas_transport(geom='atom',
                                diam=2.75,
                                well_depth=80.0))

species(name=u'OH',
        atoms='H:1 O:1',
        thermo=(NASA([200.00, 1000.00],
                     [ 3.99198424E+00, -2.40106655E-03,  4.61664033E-06,
                      -3.87916306E-09,  1.36319502E-12,  3.36889836E+03,
                      -1.03998477E-01]),
                NASA([1000.00, 6000.00],
                     [ 2.83853033E+00,  1.10741289E-03, -2.94000209E-07,
                       4.20698729E-11, -2.42289890E-15,  3.69780808E+03,
                       5.84494652E+00])),
        transport=gas_transport(geom='linear',
                                diam=2.75,
                                well_depth=80.0))

species(name=u'HO2',
        atoms='H:1 O:2',
        thermo=(NASA([200.00, 1000.00],
                     [ 4.30179801E+00, -4.74912051E-03,  2.11582891E-05,
                      -2.42763894E-08,  9.29225124E-12,  2.94808040E+02,
                       3.71666245E+00]),
                NASA([1000.00, 3500.00],
                     [ 4.01721090E+00,  2.23982013E-03, -6.33658150E-07,
                       1.14246370E-10, -1.07908535E-14,  1.11856713E+02,
                       3.78510215E+00])),
        transport=gas_transport(geom='nonlinear',
                                diam=3.458,
                                well_depth=107.4,
                                rot_relax=1.0))

species(name=u'HCO',
        atoms='C:1 H:1 O:1',
        thermo=(NASA([200.00, 1000.00],
                     [ 4.22118584E+00, -3.24392532E-03,  1.37799446E-05,
                      -1.33144093E-08,  4.33768865E-12,  3.83956496E+03,
                       3.39437243E+00]),
                NASA([1000.00, 3500.00],
                     [ 2.77217438E+00,  4.95695526E-03, -2.48445613E-06,
                       5.89161778E-10, -5.33508711E-14,  4.01191815E+03,
                       9.79834492E+00])),
        transport=gas_transport(geom='nonlinear',
                                diam=3.59,
                                well_depth=498.0))

species(name=u'CH3O',
        atoms='C:1 H:3 O:1',
        thermo=(NASA([200.00, 1000.00],
                     [ 3.71180500E+00, -2.80463310E-03,  3.76550970E-05,
                      -4.73072090E-08,  1.86588420E-11,  1.29569760E+03,
                       6.57240860E+00]),
                NASA([1000.00, 6000.00],
                     [ 4.75779240E+00,  7.44142470E-03, -2.69705180E-06,
                       4.38090500E-10, -2.63537100E-14,  3.78111940E+02,
                      -1.96680030E+00])),
        transport=gas_transport(geom='nonlinear',
                                diam=3.69,
                                well_depth=417.0,
                                dipole=1.7,
                                rot_relax=2.0))

species(name=u'CH2OH',
        atoms='C:1 H:3 O:1',
        thermo=(NASA([200.00, 1000.00],