units(length='cm', time='s', quantity='mol', act_energy='cal/mol')

ideal_gas(name='gas',
          elements="N H O C Ar",
          species="""N2        H         O2        O         OH
                     H2        H2O       CO2       HO2       H2O2
                     CO        HCO       C         CH        T-CH2
                     CH3       CH2O      HCCO      C2H       CH2CO
                     C2H2      S-CH2     CH3OH     CH2OH     CH3O
                     CH4       CH3O2     C2H3      C2H4      C2H5
                     HCCOH     CH2CHO    CH3CHO    H2C2      N-C3H7
                     C2H6      C3H8      C3H6      C3H3      P-C3H4
                     A-C3H4    S-C3H5    N-C4H3    C2H3CHO   A-C3H5
                     C2O       C4H4      C3H2      C3H2O     C4H2
                     I-C4H3    T-C3H5    C4H       C8H2      C6H2
                     C4H6      N-C4H5    I-C4H5    A1        C4H7
                     I-C3H7    C5H4CH2   A1-       A1C2H2    A1C2H3
                     A1C2H     A1C2H*    A2-       A2        A2*
                     A2C2HA    A2C2HB    A2C2HA*   A2C2HB*   A2R5
                     A2R5-     A2R5C2H   A2R5C2H*  P2        P2-
                     A3-       A3        A3*       A3R5-     A3R5
                     A4        A4-       A4R5      FLTN      C5H6
                     C5H5      T-C5H5O   C5H4O     C9H8      C9H7
                     A1CH2     C9H6O     O-C6H4    A1CH3     A1OH
                     HOA1CH3   OA1CH3    A1CH2OH   A1CHO     A1O
                     A1CH3*    A1C2H4    A1C2H5    A1CH3CH2  A2CH3
                     A2OH      A2CH2     A2CHO     A2O       OC6H4O""",
          transport='Mix',
          initial_state=state(temperature=300.0, pressure=OneAtm))

#-------------------------------------------------------------------------------
# Species data
#-------------------------------------------------------------------------------

species(name=u'N2',
        atoms='N:2',
        thermo=(NASA([300.00, 1000.00],
                     [ 3.29867700E+00,  1.40824040E-03, -3.96322200E-06,
                       5.64151500E-09, -2.44485400E-12, -1.02089990E+03,
                       3.95037200E+00]),
                NASA([1000.00, 5000.00],
                     [ 2.92664000E+00,  1.48797680E-03, -5.68476000E-07,
                       1.00970380E-10, -6.75335100E-15, -9.22797700E+02,
                       5.98052800E+00])),
        transport=gas_transport(geom='linear',
                                diam=3.621,
                                well_depth=97.53,
                                polar=1.76,
                                rot_relax=4.0),
        note=u'121286')

species(name=u'H',
        atoms='H:1',
        thermo=(NASA([200.00, 1000.00],
                     [ 2.50000000E+00,  7.05332819E-13, -1.99591964E-15,
                       2.30081632E-18, -9.27732332E-22,  2.54736599E+04,
                      -4.46682853E-01]),
                NASA([1000.00, 3500.00],
                     [ 2.50000001E+00, -2.30842973E-11,  1.61561948E-14,
                      -4.73515235E-18,  4.98197357E-22,  2.54736599E+04,
                      -4.46682914E-01])),
        transport=gas_transport(geom='atom',
                                diam=2.05,
                                well_depth=145.0),
        note=u'L7/88')

species(name=u'O2',
        atoms='O:2',
        thermo=(NASA([200.00, 1000.00],
                     [ 3.78245636E+00, -2.99673416E-03,  9.84730201E-06,
                      -9.68129509E-09,  3.24372837E-12, -1.06394356E+03,
                       3.65767573E+00]),
                NASA([1000.00, 3500.00],
                     [ 3.28253784E+00,  1.48308754E-03, -7.57966669E-07,
                       2.09470555E-10, -2.16717794E-14, -1.08845772E+03,
                       5.45323129E+00])),
        transport=gas_transport(geom='linear',
                                diam=3.458,
                                well_depth=107.4,
                                polar=1.6,
                                rot_relax=3.8),
        note=u'TPIS89')

species(name=u'O',
        atoms='O:1',
        thermo=(NASA([200.00, 1000.00],
                     [ 3.16826710E+00, -3.27931884E-03,  6.64306396E-06,
                      -6.12806624E-09,  2.11265971E-12,  2.91222592E+04,
                       2.05193346E+00]),
                NASA([1000.00, 3500.00],
                     [ 2.56942078E+00, -8.59741137E-05,  4.19484589E-08,
                      -1.00177799E-11,  1.22833691E-15,  2.92175791E+04,
                       4.78433864E+00])),
        transport=gas_transport(geom='atom',
                                diam=2.75,
                                well_depth=80.0),
        note=u'L1/90')

species(name=u'OH',
        atoms='H:1 O:1',
        thermo=(NASA([200.00, 1000.00],
                     [ 4.12530561E+00, -3.22544939E-03,  6.52764691E-06,
                      -5.79853643E-09,  2.06237379E-12,  3.38153812E+03,
                      -6.90432960E-01]),
                NASA([1000.00, 6000.00],
                     [ 2.86472886E+00,  1.05650448E-03, -2.59082758E-07,
                       3.05218674E-11, -1.33195876E-15,  3.71885774E+03,
                       5.70164073E+00])),
        transport=gas_transport(geom='linear',
                                diam=2.75,
                                well_depth=80.0),
        note=u'S9/01')

species(name=u'H2',
        atoms='H:2',
        thermo=(NASA([200.00, 1000.00],
                     [ 2.34433112E+00,  7.98052075E-03, -1.94781510E-05,
                       2.01572094E-08, -7.37611761E-12, -9.17935173E+02,
                       6.83010238E-01]),
                NASA([1000.00, 3500.00],
                     [ 3.33727920E+00, -4.94024731E-05,  4.99456778E-07,
                      -1.79566394E-10,  2.00255376E-14, -9.50158922E+02,
                      -3.20502331E+00])),
        transport=gas_transport(geom='linear',
                                diam=2.92,
                                well_depth=38.0,
                                polar=0.79,
                                rot_relax=280.0),
        note=u'TPIS78')

species(name=u'H2O',
        atoms='H:2 O:1',
        thermo=(NASA([200.00, 1000.00],
                     [ 4.19864056E+00, -2.03643410E-03,  6.52040211E-06,
                      -5.48797062E-09,  1.77197817E-12, -3.02937267E+04,
                      -8.49032208E-01]),
                NASA([1000.00, 3500.00],
                     [ 3.03399249E+00,  2.17691804E-03, -1.64072518E-07,
                      -9.70419870E-11,  1.68200992E-14, -3.00042971E+04,
                       4.96677010E+00])),
        transport=gas_transport(geom='nonlinear',
                                diam=2.605,
                                well_depth=572.4,
                                dipole=1.844,
                                rot_relax=4.0),
        note=u'L8/89')

species(name=u'CO2',
        atoms='C:1 O:2',
        thermo=(NASA([200.00, 1000.00],
                     [ 2.35677352E+00,  8.98459677E-03, -7.12356269E-06,
                       2.45919022E-09, -1.43699548E-13, -4.83719697E+04,
                       9.90105222E+00]),
                NASA([1000.00, 3500.00],
                     [ 3.85746029E+00,  4.41437026E-03, -2.21481404E-06,
                       5.23490188E-10, -4.72084164E-14, -4.87591660E+04,
                       2.27163806E+00])),
        transport=gas_transport(geom='linear',
                                diam=3.763,
                                well_depth=244.0,
                                polar=2.65,
                                rot_relax=2.1),
        note=u'L7/88')

species(name=u'HO2',
        atoms='H:1 O:2',
        thermo=(NASA([200.00, 1000.00],
                     [ 4.30179801E+00, -4.74912051E-03,  2.11582891E-05,
                      -2.42763894E-08,  9.29225124E-12,  2.94808040E+02,
                       3.71666245E+00]),
                NASA([1000.00, 3500.00],
                     [ 4.01721090E+00,  2.23982013E-03, -6.33658150E-07,
                       1.14246370E-10, -1.07908535E-14,  1.11856713E+02,
                       3.78510215E+00])),
        transport=gas_transport(geom='nonlinear',
                                diam=3.458,
                                well_depth=107.4,
                                rot_relax=1.0),
        note=u'L5/89')

species(name=u'H2O2',
        atoms='H:2 O:2',
        thermo=(NASA([200.00, 1000.00],
                     [ 4.27611269E+00, -5.42822417E-04,  1.67335701E-05,
                      -2.15770813E-08,  8.62454363E-12, -1.77025821E+04,
                       3.43505074E+00]),
                NASA([1000.00, 3500.00],
                     [ 4.16500285E+00,  4.90831694E-03, -1.90139225E-06,
                       3.71185986E-10, -2.87908305E-14, -1.78617877E+04,
                       2.91615662E+00])),
        transport=gas_transport(geom='nonlinear',
                                diam=3.458,
                                well_depth=107.4,
                                rot_relax=3.8),
        note=u'L7/88')

species(name=u'CO',
        atoms='C:1 O:1',
        thermo=(NASA([200.00, 1000.00],
                     [ 3.57953347E+00, -6.10353680E-04,  1.01681433E-06,
                       9.07005884E-10, -9.04424499E-13, -1.43440860E+04,
                       3.50840928E+00]),
                NASA([1000.00, 3500.00],
                     [ 2.71518561E+00,  2.06252743E-03, -9.98825771E-07,
                       2.30053008E-10, -2.03647716E-14, -1.41518724E+04,
                       7.81868772E+00])),
        transport=gas_transport(geom='linear',
                                diam=3.65,
                                well_depth=98.1,
                                polar=1.95,
                                rot_relax=1.8),
        note=u'TPIS79')

species(name=u'HCO',
        atoms='C:1 H:1 O:1',
        thermo=(NASA([200.00, 1000.00],
                     [ 4.22118584E+00, -3.24392532E-03,  1.37799446E-05,
                      -1.33144093E-08,  4.33768865E-12,  3.83956496E+03,
                       3.39437243E+00]),
                NASA([1000.00, 3500.00],
                     [ 2.77217438E+00,  4.95695526E-03, -2.48445613E-06,
                       5.89161778E-10, -5.33508711E-14,  4.01191815E+03,
                       9.79834492E+00])),
        transport=gas_transport(geom='nonlinear',
                                diam=3.59,
                                well_depth=498.0),
        note=u'L12/89')

species(name=u'C',
        atoms='C:1',
        thermo=(NASA([200.00, 1000.00],
                     [ 2.55423955E+00, -3.21537724E-04,  7.33792245E-07,
                      -7.32234889E-10,  2.66521446E-13,  8.54438832E+04,
                       4.53130848E+00]),
                NASA([1000.00, 3500.00],
                     [ 2.49266888E+00,  4.79889284E-05, -7.24335020E-08,
                       3.74291029E-11, -4.87277893E-15,  8.54512953E+04,
                       4.80150373E+00])),
        transport=gas_transport(geom='atom',
                                diam=3.298,
                                well_depth=71.4),
        note=u'L11/88')

species(name=u'CH',
        atoms='C:1 H:1',
        thermo=(NASA([200.00, 1000.00],
                     [ 3.48981665E+00,  3.23835541E-04, -1.68899065E-06,
                       3.16217327E-09, -1.40609067E-12,  7.07972934E+04,
                       2.08401108E+00]),
                NASA([1000.00, 3500.00],
                     [ 2.87846473E+00,  9.70913681E-04,  1.44445655E-07,
                      -1.30687849E-10,  1.76079383E-14,  7.10124364E+04,
                       5.48497999E+00])),
        transport=gas_transport(geom='linear',
                                diam=2.75,
                                well_depth=80.0),
        note=u'TPIS79')

species(name=u'T-CH2',
        atoms='C:1 H:2',
        thermo=(NASA([200.00, 1000.00],
                     [ 3.76267867E+00,  9.68872143E-04,  2.79489841E-06,
                      -3.85091153E-09,  1.68741719E-12,  4.60040401E+04,
                       1.56253185E+00]),
                NASA([1000.00, 3500.00],
                     [ 2.87410113E+00,  3.65639292E-03, -1.40894597E-06,
                       2.60179549E-10, -1.87727567E-14,  4.62636040E+04,
                       6.17119324E+00])),
        transport=gas_transport(geom='linear',
                                diam=3.8,
                                well_depth=144.0),
        note=u'LS/93')

species(name=u'CH3',
        atoms='C:1 H:3',
        thermo=(NASA([200.00, 1000.00],
                     [ 3.65717970E+00,  2.12659790E-03,  5.45838830E-06,
                      -6.61810030E-09,  2.46570740E-12,  1.64227160E+04,
                       1.67353540E+00]),
                NASA([1000.00, 6000.00],
                     [ 2.97812060E+00,  5.79785200E-03, -1.97558000E-06,
                       3.07297900E-10, -1.79174160E-14,  1.65095130E+04,
                       4.72247990E+00])),
        transport=gas_transport(geom='linear',
                                diam=3.8,
                                well_depth=144.0),
        note=u'METHYLIU0702')

species(name=u'CH2O',
        atoms='C:1 H:2 O:1',
        thermo=(NASA([200.00, 1000.00],
                     [ 4.79372315E+00, -9.90833369E-03,  3.73220008E-05,
                      -3.79285261E-08,  1.31772652E-11, -1.43089567E+04,
                       6.02812900E-01]),
                NASA([1000.00, 3500.00],
                     [ 1.76069008E+00,  9.20000082E-03, -4.42258813E-06,
                       1.00641212E-09, -8.83855640E-14, -1.39958323E+04,
                       1.36563230E+01])),
        transport=gas_transport(geom='nonlinear',
                                diam=3.59,
                                well_depth=498.0,
                                rot_relax=2.0),
        note=u'L8/88')

species(name=u'HCCO',
        atoms='C:2 H:1 O:1',
        thermo=(NASA([300.00, 1000.00],
                     [ 2.25172140E+00,  1.76550210E-02, -2.37291010E-05,
                       1.72757590E-08, -5.06648110E-12,  2.00594490E+04,
                       1.24904170E+01]),
                NASA([1000.00, 4000.00],
                     [ 5.62820580E+00,  4.08534010E-03, -1.59345470E-06,
                       2.86260520E-10, -1.94078320E-14,  1.93272150E+04,
                      -3.93025950E+00])),
        transport=gas_transport(geom='nonlinear',
                                diam=2.5,
                                well_depth=150.0,
                                rot_relax=1.0),
        note=u'SRIC91')

species(name=u'C2H',
        atoms='C:2 H:1',
        thermo=(NASA([200.00, 1000.00],
                     [ 2.88965733E+00,  1.34099611E-02, -2.84769501E-05,
                       2.94791045E-08, -1.09331511E-11,  6.68393932E+04,
                       6.22296438E+00]),
                NASA([1000.00, 3500.00],
                     [ 3.16780652E+00,  4.75221902E-03, -1.83787077E-06,
                       3.04190252E-10, -1.77232770E-14,  6.71210650E+04,
                       6.63589475E+00])),
        transport=gas_transport(geom='linear',
                                diam=4.1,
                                well_depth=209.0,
                                rot_relax=2.5),
        note=u'L1/91')

species(name=u'CH2CO',
        atoms='C:2 H:2 O:1',
        thermo=(NASA([200.00, 1000.00],
                     [ 2.13583630E+00,  1.81188721E-02, -1.73947474E-05,
                       9.34397568E-09, -2.01457615E-12, -7.04291804E+03,
                       1.22156480E+01]),
                NASA([1000.00, 3500.00],
                     [ 4.51129732E+00,  9.00359745E-03, -4.16939635E-06,
                       9.23345882E-10, -7.94838201E-14, -7.55105311E+03,
                       6.32247205E-01])),
        transport=gas_transport(geom='nonlinear',
                                diam=3.97,
                                well_depth=436.0,
                                rot_relax=2.0),
        note=u'L5/90')

species(name=u'C2H2',
        atoms='C:2 H:2',
        thermo=(NASA([200.00, 1000.00],
                     [ 8.08681094E-01,  2.33615629E-02, -3.55171815E-05,
                       2.80152437E-08, -8.50072974E-12,  2.64289807E+04,
                       1.39397051E+01]),
                NASA([1000.00, 3500.00],
                     [ 4.14756964E+00,  5.96166664E-03, -2.37294852E-06,
                       4.67412171E-10, -3.61235213E-14,  2.59359992E+04,
                      -1.23028121E+00])),
        transport=gas_transport(geom='linear',
                                diam=4.1,
                                well_depth=209.0,
                                rot_relax=2.5),
        note=u'L1/91')

species(name=u'S-CH2',
        atoms='C:1 H:2',
        thermo=(NASA([200.00, 1000.00],
                     [ 4.19860411E+00, -2.36661419E-03,  8.23296220E-06,
                      -6.68815981E-09,  1.94314737E-12,  5.04968163E+04,
                      -7.69118967E-01]),
                NASA([1000.00, 3500.00],
                     [ 2.29203842E+00,  4.65588637E-03, -2.01191947E-06,
                       4.17906000E-10, -3.39716365E-14,  5.09259997E+04,
                       8.62650169E+00])),
        transport=gas_transport(geom='linear',
                                diam=3.8,
                                well_depth=144.0),
        note=u'LS/93')

species(name=u'CH3OH',
        atoms='C:1 H:4 O:1',
        thermo=(NASA([200.00, 1000.00],
                     [ 5.71539582E+00, -1.52309129E-02,  6.52441155E-05,
                      -7.10806889E-08,  2.61352698E-11, -2.56427656E+04,
                      -1.50409823E+00]),
                NASA([1000.00, 3500.00],
                     [ 1.78970791E+00,  1.40938292E-02, -6.36500835E-06,
                       1.38171085E-09, -1.17060220E-13, -2.53748747E+04,
                       1.45023623E+01])),
        transport=gas_transport(geom='nonlinear',
                                diam=3.626,
                                well_depth=481.8,
                                rot_relax=1.0),
        note=u'L8/88')

species(name=u'CH2OH',
        atoms='C:1 H:3 O:1',
        thermo=(NASA([200.00, 1000.00],
                     [ 3.86388918E+00,  5.59672304E-03,  5.93271791E-06,
                      -1.04532012E-08,  4.36967278E-12, -3.19391367E+03,
                       5.47302243E+00]),
                NASA([1000.00, 3500.00],
                     [ 3.69266569E+00,  8.64576797E-03, -3.75101120E-06,
                       7.87234636E-10, -6.48554201E-14, -3.24250627E+03,
                       5.81043215E+00])),
        transport=gas_transport(geom='nonlinear',
                                diam=3.69,
                                well_depth=417.0,
                                dipole=1.7,
                                rot_relax=2.0),
        note=u'GUNL93')

species(name=u'CH3O',
        atoms='C:1 H:3 O:1',
        thermo=(NASA([300.00, 1000.00],
                     [ 2.10620400E+00,  7.21659500E-03,  5.33847200E-06,
                      -7.37763600E-09,  2.07561000E-12,  9.78601100E+02,
                       1.31521770E+01]),
                NASA([1000.00, 3000.00],
                     [ 3.77079900E+00,  7.87149700E-03, -2.65638400E-06,
                       3.94443100E-10, -2.11261600E-14,  1.27832520E+02,
                       2.92957500E+00])),
        transport=gas_transport(geom='nonlinear',
                                diam=3.69,
                                well_depth=417.0,
                                dipole=1.7,
                                rot_relax=2.0),
        note=u'121686')

species(name=u'CH4',
        atoms='C:1 H:4',
        thermo=(NASA([200.00, 1000.00],
                     [ 5.14911468E+00, -1.36622009E-02,  4.91453921E-05,
                      -4.84246767E-08,  1.66603441E-11, -1.02465983E+04,
                      -4.63848842E+00]),
                NASA([1000.00, 6000.00],
                     [ 1.65326226E+00,  1.00263099E-02, -3.31661238E-06,
                       5.36483138E-10, -3.14696758E-14, -1.00095936E+04,
                       9.90506283E+00])),
        transport=gas_transport(geom='nonlinear',
                                diam=3.746,
                                well_depth=141.4,
                                polar=2.6,
                                rot_relax=13.0),
        note=u'g8/99')

species(name=u'CH3O2',
        atoms='C:1 H:3 O:2',
        thermo=(NASA([200.00, 1000.00],
                     [ 4.76597792E+00, -3.51077148E-03,  4.54394152E-05,
                      -5.66763729E-08,  2.21591482E-11, -4.82401289E+02,
                       4.76095141E+00]),
                NASA([1000.00, 6000.00],
                     [ 5.92505819E+00,  9.00194542E-03, -3.24254309E-06,
                       5.24362718E-10, -3.14263003E-14, -1.53258958E+03,
                      -4.93669747E+00])),
        transport=gas_transport(geom='nonlinear',
                                diam=3.626,
                                well_depth=481.8,
                                rot_relax=1.0),
        note=u'PEROXYMETHT04/02')

species(name=u'C2H3',
        atoms='C:2 H:3',
        thermo=(NASA([200.00, 1000.00],
                     [ 3.21246645E+00,  1.51479162E-03,  2.59209412E-05,
                      -3.57657847E-08,  1.47150873E-11,  3.48598468E+04,
                       8.51054025E+00]),
                NASA([1000.00, 3500.00],
                     [ 3.01672400E+00,  1.03302292E-02, -4.68082349E-06,
                       1.01763288E-09, -8.62607041E-14,  3.46128739E+04,
                       7.78732378E+00])),
        transport=gas_transport(geom='nonlinear',
                                diam=4.1,
                                well_depth=209.0,
                                rot_relax=1.0),
        note=u'L2/92')

species(name=u'C2H4',
        atoms='C:2 H:4',
        thermo=(NASA([200.00, 1000.00],
                     [ 3.95920148E+00, -7.57052247E-03,  5.70990292E-05,
                      -6.91588753E-08,  2.69884373E-11,  5.08977593E+03,
                       4.09733096E+00]),
                NASA([1000.00, 3500.00],
                     [ 2.03611116E+00,  1.46454151E-02, -6.71077915E-06,
                       1.47222923E-09, -1.25706061E-13,  4.93988614E+03,
                       1.03053693E+01])),
        transport=gas_transport(geom='nonlinear',
                                diam=3.971,
                                well_depth=280.8,
                                rot_relax=1.5),
        note=u'L1/91')

species(name=u'C2H5',
        atoms='C:2 H:5',
        thermo=(NASA([200.00, 1000.00],
                     [ 4.30646568E+00, -4.18658892E-03,  4.97142807E-05,
                      -5.99126606E-08,  2.30509004E-11,  1.28416265E+04,
                       4.70720924E+00]),
                NASA([1000.00, 3500.00],
                     [ 1.95465642E+00,  1.73972722E-02, -7.98206668E-06,
                       1.75217689E-09, -1.49641576E-13,  1.28575200E+04,
                       1.34624343E+01])),
        transport=gas_transport(geom='nonlinear',
                                diam=4.302,
                                well_depth=252.3,
                                rot_relax=1.5),
        note=u'L12/92')

species(name=u'HCCOH',
        atoms='C:2 H:2 O:1',
        thermo=(NASA([300.00, 1000.00],
                     [ 1.24237330E+00,  3.10722010E-02, -5.08668640E-05,
                       4.31371310E-08, -1.40145940E-11,  8.03161430E+03,
                       1.38743190E+01]),
                NASA([1000.00, 5000.00],
                     [ 5.92382910E+00,  6.79236000E-03, -2.56585640E-06,
                       4.49878410E-10, -2.99401010E-14,  7.26462600E+03,
                      -7.60177420E+00])),
        transport=gas_transport(geom='nonlinear',
                                diam=3.97,
                                well_depth=436.0,
                                rot_relax=2.0),
        note=u'SRI91')

species(name=u'CH2CHO',
        atoms='C:2 H:3 O:1',
        thermo=(NASA([300.00, 1000.00],
                     [ 1.09685733E+00,  2.20228796E-02, -1.44583444E-05,
                       3.00779578E-09,  6.08992877E-13,  1.06943322E+03,
                       1.90094813E+01]),
                NASA([1000.00, 3000.00],
                     [ 2.42606357E+00,  1.72400021E-02, -9.77132119E-06,
                       2.66555672E-09, -2.82120078E-13,  8.33106990E+02,
                       1.26038737E+01])),
        transport=gas_transport(geom='nonlinear',
                                diam=3.97,
                                well_depth=436.0,
                                rot_relax=2.0),
        note=u'G3B3')

species(name=u'CH3CHO',
        atoms='C:2 H:4 O:1',
        thermo=(NASA([300.00, 1000.00],
                     [ 1.40653856E+00,  2.16984438E-02, -1.47573265E-05,
                       7.30435478E-09, -2.09119467E-12, -2.17973223E+04,
                       1.77513265E+01]),
                NASA([1000.00, 3000.00],
                     [ 2.68543112E+00,  1.76802373E-02, -8.65402739E-06,
                       2.03680589E-09, -1.87630935E-13, -2.21653701E+04,
                       1.11635653E+01])),
        transport=gas_transport(geom='nonlinear',
                                diam=3.97,
                                well_depth=436.0,
                                rot_relax=2.0),
        note=u'G3B3')

species(name=u'H2C2',
        atoms='C:2 H:2',
        thermo=(NASA([200.00, 1000.00],
                     [ 3.28154830E+00,  6.97647910E-03, -2.38552440E-06,
                      -1.21044320E-09,  9.81895450E-13,  4.86217940E+04,
                       5.92039100E+00]),
                NASA([1000.00, 6000.00],
                     [ 4.27803400E+00,  4.75628040E-03, -1.63010090E-06,
                       2.54628060E-10, -1.48863790E-14,  4.83166880E+04,
                       6.40237010E-01])),
        transport=gas_transport(geom='nonlinear',
                                diam=4.1,
                                well_depth=209.0,
                                rot_relax=2.5),
        note=u'L12/89')

species(name=u'N-C3H7',
        atoms='C:3 H:7',
        thermo=(NASA([298.15, 1000.00],
                     [ 1.04754730E+00,  2.60077940E-02,  2.35622520E-06,
                      -1.95923170E-08,  9.36801160E-12,  1.06326370E+04,
                       2.11418760E+01]),
                NASA([1000.00, 5000.00],
                     [ 7.70404050E+00,  1.60415400E-02, -5.28159670E-06,
                       7.62544030E-10, -3.93534620E-14,  8.29795310E+03,
                      -1.54875140E+01])),
        transport=gas_transport(geom='nonlinear',
                                diam=4.982,
                                well_depth=266.8,
                                rot_relax=1.0),
        note=u'N-L9/85')

species(name=u'C2H6',
        atoms='C:2 H:6',
        thermo=(NASA([200.00, 1000.00],
                     [ 4.29142492E+00, -5.50154270E-03,  5.99438288E-05,
                      -7.08466285E-08,  2.68685771E-11, -1.15222055E+04,
                       2.66682316E+00]),
                NASA([1000.00, 3500.00],
                     [ 1.07188150E+00,  2.16852677E-02, -1.00256067E-05,
                       2.21412001E-09, -1.90002890E-13, -1.14263932E+04,
                       1.51156107E+01])),
        transport=gas_transport(geom='nonlinear',
                                diam=4.302,
                                well_depth=252.3,
                                rot_relax=1.5),
        note=u'L8/88')

species(name=u'C3H8',
        atoms='C:3 H:8',
        thermo=(NASA([300.00, 1000.00],
                     [ 9.33553810E-01,  2.64245790E-02,  6.10597270E-06,
                      -2.19774990E-08,  9.51492530E-12, -1.39585200E+04,
                       1.92016910E+01]),
                NASA([1000.00, 5000.00],
                     [ 7.53413680E+00,  1.88722390E-02, -6.27184910E-06,
                       9.14756490E-10, -4.78380690E-14, -1.64675160E+04,
                      -1.78923490E+01])),
        transport=gas_transport(geom='nonlinear',
                                diam=4.982,
                                well_depth=266.8,
                                rot_relax=1.0),
        note=u'L4/85')

species(name=u'C3H6',
        atoms='C:3 H:6',
        thermo=(NASA([300.00, 1000.00],
                     [-2.29261670E-03,  3.10261065E-02, -1.67151548E-05,
                       1.89594170E-09,  1.24957915E-12,  1.13437406E+03,
                       2.35719601E+01]),
                NASA([1000.00, 3000.00],
                     [ 4.71697982E-01,  2.89513070E-02, -1.56601819E-05,
                       4.11443199E-09, -4.23075141E-13,  1.12603387E+03,
                       2.15237289E+01])),
        transport=gas_transport(geom='nonlinear',
                                diam=4.982,
                                well_depth=266.8,
                                rot_relax=1.0),
        note=u'G3B3')

species(name=u'C3H3',
        atoms='C:3 H:3',
        thermo=(NASA([300.00, 1000.00],
                     [ 1.40299238E+00,  3.01773327E-02, -3.98449373E-05,
                       2.93534629E-08, -8.70554579E-12,  3.93108220E+04,
                       1.51527845E+01]),
                NASA([1000.00, 3000.00],
                     [ 6.14915291E+00,  9.34063166E-03, -3.75055354E-06,
                       6.90156316E-10, -4.60824994E-14,  3.83854848E+04,
                      -7.45345215E+00])),
        transport=gas_transport(geom='nonlinear',
                                diam=4.76,
                                well_depth=252.0,
                                rot_relax=1.0),
        note=u'G3B3')

species(name=u'P-C3H4',
        atoms='C:3 H:4',
        thermo=(NASA([300.00, 1000.00],