"""
86-species reduced mechanism
genrated by: Tianfeng Lu, tlu@engr.uconn.edu
01-Aug-2014

29 OCT 2013
AramcoMech 1.3 Aromatic mech based Kaust PAH mech 2 Ver 1.0

VERSION: AramcoMech 1.3
AUTHORS: W. K. Metcalfe, S. Burke, H. J. Curran
WEBSITE: http://c3.nuigalway.ie/

"""

units(length='cm', time='s', quantity='mol', act_energy='cal/mol')

ideal_gas(name='gas',
          elements="C H N O",
          species="""H          H2         O          O2         OH
                     H2O        HO2        H2O2       CO         CO2
                     CH2O       HCO        CH3OH      CH4        CH3
                     CH2        C2H6       C2H5       C2H4       C2H3
                     C2H2       CH3CHO     C2H3OH     CH2CHO     CH2CO
                     HCCO       C2H4O1-2   C2H3CHO    C3H8       C3H6
                     C3H5-A     C3H5-S     C3H5-T     C3H4-P     C3H3
                     C4H6       C4H4       C4H3-I     C4H3-N     C4H2
                     C4H5-I     C4H5-2     C4H6-2     H2C4O      A1
                     c-C5H6     A1-        C6H5O      c-C5H5     C5H4O
                     C6H5CH2    C6H5CH3    A1C2H      A1CHO      A1C2H*
                     A1C2H3     A2-1       A2         A2R5       A3-4
                     A2R5-      A4         A4-1       A4-2       A4-4
                     A1C2H5     C9H7       A2CH3      C9H6O      C9H8
                     A4R5       BAPYR      BEPYREN    PYC2H-1    PYC2H-2
                     PYC2H-4    PYC2H-1JP  PYC2H-2JS  BAPYRJS    PYC2H-4JS
                     BEPYRENJS  BGHIPER    ANTHAN     BGHIPEJS1  CORONEN
                     N2""",
          transport='Mix',
          initial_state=state(temperature=300.0, pressure=OneAtm))

#-------------------------------------------------------------------------------
# Species data
#-------------------------------------------------------------------------------

species(name=u'H',
        atoms='H:1',
        thermo=(NASA([200.00, 1000.00],
                     [ 2.50000000E+00,  0.00000000E+00,  0.00000000E+00,
                       0.00000000E+00,  0.00000000E+00,  2.54736600E+04,
                      -4.46682850E-01]),
                NASA([1000.00, 6000.00],
                     [ 2.50000000E+00,  0.00000000E+00,  0.00000000E+00,
                       0.00000000E+00,  0.00000000E+00,  2.54736600E+04,
                      -4.46682850E-01])),
        transport=gas_transport(geom='atom',
                                diam=2.05,
                                well_depth=145.0),
        note=u'L6/94')

species(name=u'H2',
        atoms='H:2',
        thermo=(NASA([200.00, 1000.00],
                     [ 2.34433112E+00,  7.98052075E-03, -1.94781510E-05,
                       2.01572094E-08, -7.37611761E-12, -9.17935173E+02,
                       6.83010238E-01]),
                NASA([1000.00, 6000.00],
                     [ 2.93286575E+00,  8.26608026E-04, -1.46402364E-07,
                       1.54100414E-11, -6.88804800E-16, -8.13065581E+02,
                      -1.02432865E+00])),
        transport=gas_transport(geom='linear',
                                diam=2.92,
                                well_depth=38.0,
                                polar=0.79,
                                rot_relax=280.0),
        note=u'TPIS78')

species(name=u'O',
        atoms='O:1',
        thermo=(NASA([200.00, 1000.00],
                     [ 3.16826710E+00, -3.27931884E-03,  6.64306396E-06,
                      -6.12806624E-09,  2.11265971E-12,  2.91222592E+04,
                       2.05193346E+00]),
                NASA([1000.00, 6000.00],
                     [ 2.54363697E+00, -2.73162486E-05, -4.19029520E-09,
                       4.95481845E-12, -4.79553694E-16,  2.92260120E+04,
                       4.92229457E+00])),
        transport=gas_transport(geom='atom',
                                diam=2.75,
                                well_depth=80.0),
        note=u'L1/90')

species(name=u'O2',
        atoms='O:2',
        thermo=(NASA([200.00, 1000.00],
                     [ 3.78245636E+00, -2.99673416E-03,  9.84730201E-06,
                      -9.68129509E-09,  3.24372837E-12, -1.06394356E+03,
                       3.65767573E+00]),
                NASA([1000.00, 6000.00],
                     [ 3.66096065E+00,  6.56365811E-04, -1.41149627E-07,
                       2.05797935E-11, -1.29913436E-15, -1.21597718E+03,
                       3.41536279E+00])),
        transport=gas_transport(geom='linear',
                                diam=3.458,
                                well_depth=107.4,
                                polar=1.6,
                                rot_relax=3.8),
        note=u'RUS89')

species(name=u'OH',
        atoms='H:1 O:1',
        thermo=(NASA([200.00, 1000.00],
                     [ 3.99198424E+00, -2.40106655E-03,  4.61664033E-06,
                      -3.87916306E-09,  1.36319502E-12,  3.36889836E+03,
                      -1.03998477E-01]),
                NASA([1000.00, 6000.00],
                     [ 2.83853033E+00,  1.10741289E-03, -2.94000209E-07,
                       4.20698729E-11, -2.42289890E-15,  3.69780808E+03,
                       5.84494652E+00])),
        transport=gas_transport(geom='linear',
                                diam=2.75,
                                well_depth=80.0),
        note=u'IU3/03')

species(name=u'H2O',
        atoms='H:2 O:1',
        thermo=(NASA([200.00, 1000.00],
                     [ 4.19863520E+00, -2.03640170E-03,  6.52034160E-06,
                      -5.48792690E-09,  1.77196800E-12, -3.02937260E+04,
                      -8.49009010E-01]),
                NASA([1000.00, 6000.00],
                     [ 2.67703890E+00,  2.97318160E-03, -7.73768890E-07,
                       9.44335140E-11, -4.26899910E-15, -2.98858940E+04,
                       6.88255000E+00])),
        transport=gas_transport(geom='nonlinear',
                                diam=2.605,
                                well_depth=572.4,
                                dipole=1.844,
                                rot_relax=4.0),
        note=u'L5/89')

species(name=u'HO2',
        atoms='H:1 O:2',
        thermo=(NASA([200.00, 1000.00],
                     [ 4.30179807E+00, -4.74912097E-03,  2.11582905E-05,
                      -2.42763914E-08,  9.29225225E-12,  2.64018485E+02,
                       3.71666220E+00]),
                NASA([1000.00, 5000.00],
                     [ 4.17228741E+00,  1.88117627E-03, -3.46277286E-07,
                       1.94657549E-11,  1.76256905E-16,  3.10206839E+01,
                       2.95767672E+00])),
        transport=gas_transport(geom='nonlinear',
                                diam=3.458,
                                well_depth=107.4,
                                rot_relax=1.0),
        note=u'T1/09')

species(name=u'H2O2',
        atoms='H:2 O:2',
        thermo=(NASA([200.00, 1000.00],
                     [ 4.31515149E+00, -8.47390622E-04,  1.76404323E-05,
                      -2.26762944E-08,  9.08950158E-12, -1.77067437E+04,
                       3.27373319E+00]),
                NASA([1000.00, 6000.00],
                     [ 4.57977305E+00,  4.05326003E-03, -1.29844730E-06,
                       1.98211400E-10, -1.13968792E-14, -1.80071775E+04,
                       6.64970694E-01])),
        transport=gas_transport(geom='nonlinear',
                                diam=3.458,
                                well_depth=107.4,
                                rot_relax=3.8),
        note=u'T8/03')

species(name=u'CO',
        atoms='C:1 O:1',
        thermo=(NASA([200.00, 1000.00],
                     [ 3.57953350E+00, -6.10353690E-04,  1.01681430E-06,
                       9.07005860E-10, -9.04424490E-13, -1.43440860E+04,
                       3.50840930E+00]),
                NASA([1000.00, 6000.00],
                     [ 3.04848590E+00,  1.35172810E-03, -4.85794050E-07,
                       7.88536440E-11, -4.69807460E-15, -1.42661170E+04,
                       6.01709770E+00])),
        transport=gas_transport(geom='linear',
                                diam=3.65,
                                well_depth=98.1,
                                polar=1.95,
                                rot_relax=1.8),
        note=u'RUS79')

species(name=u'CO2',
        atoms='C:1 O:2',
        thermo=(NASA([200.00, 1000.00],
                     [ 2.35681300E+00,  8.98412990E-03, -7.12206320E-06,
                       2.45730080E-09, -1.42885480E-13, -4.83719710E+04,
                       9.90090350E+00]),
                NASA([1000.00, 6000.00],
                     [ 4.63651110E+00,  2.74145690E-03, -9.95897590E-07,
                       1.60386660E-10, -9.16198570E-15, -4.90249040E+04,
                      -1.93489550E+00])),
        transport=gas_transport(geom='linear',
                                diam=3.763,
                                well_depth=244.0,
                                polar=2.65,
                                rot_relax=2.1),
        note=u'L7/88')

species(name=u'CH2O',
        atoms='C:1 H:2 O:1',
        thermo=(NASA([200.00, 1000.00],
                     [ 4.79372312E+00, -9.90833322E-03,  3.73219990E-05,
                      -3.79285237E-08,  1.31772641E-11, -1.43791953E+04,
                       6.02798058E-01]),
                NASA([1000.00, 6000.00],
                     [ 3.16952665E+00,  6.19320560E-03, -2.25056366E-06,
                       3.65975660E-10, -2.20149458E-14, -1.45486831E+04,
                       6.04207898E+00])),
        transport=gas_transport(geom='nonlinear',
                                diam=3.59,
                                well_depth=498.0,
                                rot_relax=2.0),
        note=u'T5/11')

species(name=u'HCO',
        atoms='C:1 H:1 O:1',
        thermo=(NASA([200.00, 1000.00],
                     [ 4.23754610E+00, -3.32075257E-03,  1.40030264E-05,
                      -1.34239995E-08,  4.37416208E-12,  3.87241185E+03,
                       3.30834869E+00]),
                NASA([1000.00, 6000.00],
                     [ 3.92001542E+00,  2.52279324E-03, -6.71004164E-07,
                       1.05615948E-10, -7.43798261E-15,  3.65342928E+03,
                       3.58077056E+00])),
        transport=gas_transport(geom='nonlinear',
                                diam=3.59,
                                well_depth=498.0),
        note=u'T5/03')

species(name=u'CH3OH',
        atoms='C:1 H:4 O:1',
        thermo=(NASA([200.00, 1000.00],
                     [ 5.65851051E+00, -1.62983419E-02,  6.91938156E-05,
                      -7.58372926E-08,  2.80427550E-11, -2.56119736E+04,
                      -8.97330508E-01]),
                NASA([1000.00, 6000.00],
                     [ 3.52726795E+00,  1.03178783E-02, -3.62892944E-06,
                       5.77448016E-10, -3.42182632E-14, -2.60028834E+04,
                       5.16758693E+00])),
        transport=gas_transport(geom='nonlinear',
                                diam=3.626,
                                well_depth=481.8,
                                rot_relax=1.0),
        note=u'T06/02')

species(name=u'CH4',
        atoms='C:1 H:4',
        thermo=(NASA([200.00, 1000.00],
                     [ 5.14911468E+00, -1.36622009E-02,  4.91453921E-05,
                      -4.84246767E-08,  1.66603441E-11, -1.02465983E+04,
                      -4.63848842E+00]),
                NASA([1000.00, 6000.00],
                     [ 1.65326226E+00,  1.00263099E-02, -3.31661238E-06,
                       5.36483138E-10, -3.14696758E-14, -1.00095936E+04,
                       9.90506283E+00])),
        transport=gas_transport(geom='nonlinear',
                                diam=3.746,
                                well_depth=141.4,
                                polar=2.6,
                                rot_relax=13.0),
        note=u'G8/99')

species(name=u'CH3',
        atoms='C:1 H:3',
        thermo=(NASA([200.00, 1000.00],
                     [ 3.65717970E+00,  2.12659790E-03,  5.45838830E-06,
                      -6.61810030E-09,  2.46570740E-12,  1.64227160E+04,
                       1.67353540E+00]),
                NASA([1000.00, 6000.00],
                     [ 2.97812060E+00,  5.79785200E-03, -1.97558000E-06,
                       3.07297900E-10, -1.79174160E-14,  1.65095130E+04,
                       4.72247990E+00])),
        transport=gas_transport(geom='linear',
                                diam=3.8,
                                well_depth=144.0),
        note=u'IU0702')

species(name=u'CH2',
        atoms='C:1 H:2',
        thermo=(NASA([200.00, 1000.00],
                     [ 3.71757846E+00,  1.27391260E-03,  2.17347251E-06,
                      -3.48858500E-09,  1.65208866E-12,  4.58723866E+04,
                       1.75297945E+00]),
                NASA([1000.00, 6000.00],
                     [ 3.14631886E+00,  3.03671259E-03, -9.96474439E-07,
                       1.50483580E-10, -8.57335515E-15,  4.60412605E+04,
                       4.72341711E+00])),
        transport=gas_transport(geom='linear',
                                diam=3.8,
                                well_depth=144.0),
        note=u'IU3/03')

species(name=u'C2H6',
        atoms='C:2 H:6',
        thermo=(NASA([200.00, 1000.00],
                     [ 4.29142572E+00, -5.50154901E-03,  5.99438458E-05,
                      -7.08466469E-08,  2.68685836E-11, -1.15222056E+04,
                       2.66678994E+00]),
                NASA([1000.00, 6000.00],
                     [ 4.04666411E+00,  1.53538802E-02, -5.47039485E-06,
                       8.77826544E-10, -5.23167531E-14, -1.24473499E+04,
                      -9.68698313E-01])),
        transport=gas_transport(geom='nonlinear',
                                diam=4.35,
                                well_depth=247.5,
                                rot_relax=1.5),
        note=u'G8/88')

species(name=u'C2H5',
        atoms='C:2 H:5',
        thermo=(NASA([300.00, 1387.00],
                     [ 1.32730217E+00,  1.76656753E-02, -6.14926558E-06,
                      -3.01143466E-10,  4.38617775E-13,  1.34284028E+04,
                       1.71789216E+01]),
                NASA([1387.00, 5000.00],
                     [ 5.88784390E+00,  1.03076793E-02, -3.46844396E-06,
                       5.32499257E-10, -3.06512651E-14,  1.15065499E+04,
                      -8.49651771E+00])),
        transport=gas_transport(geom='nonlinear',
                                diam=4.35,
                                well_depth=247.5,
                                rot_relax=1.5),
        note=u'8/4/4THERM')

species(name=u'C2H4',
        atoms='C:2 H:4',
        thermo=(NASA([200.00, 1000.00],
                     [ 3.95920063E+00, -7.57051373E-03,  5.70989993E-05,
                      -6.91588352E-08,  2.69884190E-11,  5.08977598E+03,
                       4.09730213E+00]),
                NASA([1000.00, 6000.00],
                     [ 3.99182724E+00,  1.04833908E-02, -3.71721342E-06,
                       5.94628366E-10, -3.53630386E-14,  4.26865851E+03,
                      -2.69081762E-01])),
        transport=gas_transport(geom='nonlinear',
                                diam=3.496,
                                well_depth=238.4,
                                rot_relax=1.5),
        note=u'G1/00')

species(name=u'C2H3',
        atoms='C:2 H:3',
        thermo=(NASA([200.00, 1000.00],
                     [ 3.36377642E+00,  2.65765722E-04,  2.79620704E-05,
                      -3.72986942E-08,  1.51590176E-11,  3.44749589E+04,
                       7.91510092E+00]),
                NASA([1000.00, 6000.00],
                     [ 4.15026763E+00,  7.54021341E-03, -2.62997847E-06,
                       4.15974048E-10, -2.45407509E-14,  3.38566380E+04,
                       1.72812235E+00])),
        transport=gas_transport(geom='nonlinear',
                                diam=3.721,
                                well_depth=265.3,
                                rot_relax=1.0),
        note=u'ATCT/A')

species(name=u'C2H2',
        atoms='C:2 H:2',
        thermo=(NASA([200.00, 1000.00],
                     [ 8.08679682E-01,  2.33615762E-02, -3.55172234E-05,
                       2.80152958E-08, -8.50075165E-12,  2.64289808E+04,
                       1.39396761E+01]),
                NASA([1000.00, 6000.00],
                     [ 4.65878489E+00,  4.88396667E-03, -1.60828888E-06,
                       2.46974544E-10, -1.38605959E-14,  2.57594042E+04,
                      -3.99838194E+00])),
        transport=gas_transport(geom='linear',
                                diam=3.721,
                                well_depth=265.3,
                                rot_relax=2.5),
        note=u'G1/91')

species(name=u'CH3CHO',
        atoms='C:2 H:4 O:1',
        thermo=(NASA([200.00, 1000.00],
                     [ 4.72945950E+00, -3.19328580E-03,  4.75349210E-05,
                      -5.74586110E-08,  2.19311120E-11, -2.15728780E+04,
                       4.10301590E+00]),
                NASA([1000.00, 6000.00],
                     [ 5.40411080E+00,  1.17230590E-02, -4.22631370E-06,
                       6.83724510E-10, -4.09848630E-14, -2.25931220E+04,
                      -3.48079170E+00])),
        transport=gas_transport(geom='nonlinear',
                                diam=3.97,
                                well_depth=436.0,
                                rot_relax=2.0),
        note=u'L8/88')

species(name=u'C2H3OH',
        atoms='C:2 H:4 O:1',
        thermo=(NASA([300.00, 1410.00],
                     [-1.27972260E-01,  3.38506073E-02, -3.30644935E-05,
                       1.64858739E-08, -3.19935455E-12, -1.59914544E+04,
                       2.30438601E+01]),
                NASA([1410.00, 5000.00],
                     [ 8.32598158E+00,  8.03387281E-03, -2.63928405E-06,
                       3.98410726E-10, -2.26551155E-14, -1.83221436E+04,
                      -2.02080305E+01])),
        transport=gas_transport(geom='nonlinear',
                                diam=4.41,
                                well_depth=470.6,
                                rot_relax=1.5),
        note=u'2/3/9THERM')

species(name=u'CH2CHO',
        atoms='C:2 H:3 O:1',
        thermo=(NASA([200.00, 1000.00],
                     [ 2.79502600E+00,  1.01099472E-02,  1.61750645E-05,
                      -3.10303145E-08,  1.39436139E-11,  1.62944975E+02,
                       1.23646657E+01]),
                NASA([1000.00, 6000.00],
                     [ 6.53928338E+00,  7.80238629E-03, -2.76413612E-06,
                       4.42098906E-10, -2.62954290E-14, -1.18858659E+03,
                      -8.72091393E+00])),
        transport=gas_transport(geom='nonlinear',
                                diam=3.97,
                                well_depth=436.0,
                                rot_relax=2.0),
        note=u'T03/10')

species(name=u'CH2CO',
        atoms='C:2 H:2 O:1',
        thermo=(NASA([300.00, 1000.00],
                     [ 1.81422511E+00,  1.99008590E-02, -2.21416008E-05,
                       1.45028521E-08, -3.98877068E-12, -7.05394926E+03,
                       1.36079359E+01]),
                NASA([1000.00, 5000.00],
                     [ 5.35869367E+00,  6.95641586E-03, -2.64802637E-06,
                       4.65067592E-10, -3.08641820E-14, -7.90294013E+03,
                      -3.98525731E+00])),
        transport=gas_transport(geom='nonlinear',
                                diam=3.97,
                                well_depth=436.0,
                                rot_relax=2.0))

species(name=u'HCCO',
        atoms='C:2 H:1 O:1',
        thermo=(NASA([200.00, 1000.00],
                     [ 1.87607969E+00,  2.21205418E-02, -3.58869325E-05,
                       3.05402541E-08, -1.01281069E-11,  2.01633840E+04,
                       1.36968290E+01]),
                NASA([1000.00, 6000.00],
                     [ 5.91479333E+00,  3.71408730E-03, -1.30137010E-06,
                       2.06473345E-10, -1.21476759E-14,  1.93596301E+04,
                      -5.50567269E+00])),
        transport=gas_transport(geom='nonlinear',
                                diam=2.5,
                                well_depth=150.0,
                                rot_relax=1.0),
        note=u'T4/09')

species(name=u'C2H4O1-2',
        atoms='C:2 H:4 O:1',
        thermo=(NASA([200.00, 1000.00],
                     [ 3.75905320E+00, -9.44121800E-03,  8.03097210E-05,
                      -1.00807880E-07,  4.00399210E-11, -7.56081430E+03,
                       7.84974750E+00]),
                NASA([1000.00, 6000.00],
                     [ 5.48876410E+00,  1.20461900E-02, -4.33369310E-06,
                       7.00283110E-10, -4.19490880E-14, -9.18042510E+03,
                      -7.07996050E+00])),
        transport=gas_transport(geom='nonlinear',
                                diam=3.97,
                                well_depth=436.0,
                                rot_relax=2.0),
        note=u'L8/88')

species(name=u'C2H3CHO',
        atoms='C:3 H:4 O:1',
        thermo=(NASA([300.00, 1393.00],
                     [ 2.92355162E-01,  3.54321417E-02, -2.94936324E-05,
                       1.28100124E-08, -2.26144108E-12, -1.16521584E+04,
                       2.28878280E+01]),
                NASA([1393.00, 5000.00],
                     [ 1.04184959E+01,  9.48963321E-03, -3.29310529E-06,
                       5.16279203E-10, -3.01587291E-14, -1.49630281E+04,
                      -3.07235061E+01])),
        transport=gas_transport(geom='nonlinear',
                                diam=4.958,
                                well_depth=428.8,
                                dipole=2.9,
                                rot_relax=1.0),
        note=u'6/26/95THERM')

species(name=u'C3H8',
        atoms='C:3 H:8',
        thermo=(NASA([200.00, 1000.00],
                     [ 4.21093013E+00,  1.70886504E-03,  7.06530164E-05,
                      -9.20060565E-08,  3.64618453E-11, -1.43810883E+04,
                       5.61004451E+00]),
                NASA([1000.00, 6000.00],
                     [ 6.66919760E+00,  2.06108751E-02, -7.36512349E-06,
                       1.18434262E-09, -7.06914630E-14, -1.62754066E+04,
                      -1.31943379E+01])),
        transport=gas_transport(geom='nonlinear',
                                diam=4.81,
                                well_depth=303.4,
                                rot_relax=1.0),
        note=u'G2/00')

species(name=u'C3H6',
        atoms='C:3 H:6',
        thermo=(NASA([200.00, 1000.00],
                     [ 3.83464468E+00,  3.29078952E-03,  5.05228001E-05,
                      -6.66251176E-08,  2.63707473E-11,  7.88717123E+02,
                       7.53408013E+00]),
                NASA([1000.00, 6000.00],
                     [ 6.03870234E+00,  1.62963931E-02, -5.82130800E-06,
                       9.35936829E-10, -5.58603143E-14, -7.41715057E+02,
                      -8.43825992E+00])),
        transport=gas_transport(geom='nonlinear',
                                diam=4.14,
                                well_depth=307.8,
                                rot_relax=1.0),
        note=u'G2/00')

species(name=u'C3H5-A',
        atoms='C:3 H:5',
        thermo=(NASA([300.00, 1000.00],
                     [ 1.36318350E+00,  1.98138210E-02,  1.24970600E-05,
                      -3.33555550E-08,  1.58465710E-11,  1.92456290E+04,
                       1.71732140E+01]),
                NASA([1000.00, 3000.00],
                     [ 6.50078770E+00,  1.43247310E-02, -5.67816320E-06,
                       1.10808010E-09, -9.03638870E-14,  1.74824490E+04,
                      -1.12430500E+01])),
        transport=gas_transport(geom='nonlinear',
                                diam=4.22,
                                well_depth=316.0,
                                rot_relax=1.0),
        note=u'PD5/98')

species(name=u'C3H5-S',
        atoms='C:3 H:5',
        thermo=(NASA([300.00, 1000.00],
                     [ 9.13729310E-01,  2.64323430E-02, -1.17589500E-05,
                      -2.30356780E-09,  2.77154880E-12,  3.09168670E+04,
                       1.99892690E+01]),
                NASA([1000.00, 3000.00],
                     [ 5.37252810E+00,  1.57805090E-02, -5.99228500E-06,
                       9.30896640E-10, -3.65509660E-14,  2.96147600E+04,
                      -3.41864780E+00])),
        transport=gas_transport(geom='nonlinear',
                                diam=4.22,
                                well_depth=316.0,
                                rot_relax=1.0),
        note=u'PD5/98')

species(name=u'C3H5-T',
        atoms='C:3 H:5',
        thermo=(NASA([300.00, 1000.00],
                     [ 1.73292090E+00,  2.23946200E-02, -5.14906110E-06,
                      -6.75964660E-09,  3.82532110E-12,  2.90404980E+04,
                       1.65688780E+01]),
                NASA([1000.00, 3000.00],
                     [ 5.42555280E+00,  1.55110720E-02, -5.66783500E-06,
                       7.92243880E-10, -1.68780340E-14,  2.78430270E+04,
                      -3.35271840E+00])),
        transport=gas_transport(geom='nonlinear',
                                diam=4.22,
                                well_depth=316.0,
                                rot_relax=1.0),
        note=u'PD5/98')

species(name=u'C3H4-P',
        atoms='C:3 H:4',
        thermo=(NASA([200.00, 1000.00],
                     [ 2.68038690E+00,  1.57996510E-02,  2.50705960E-06,
                      -1.36576230E-08,  6.61542850E-12,  2.08023740E+04,
                       9.87693510E+00]),
                NASA([1000.00, 6000.00],
                     [ 6.02524000E+00,  1.13365420E-02, -4.02233910E-06,
                       6.43760630E-10, -3.82996350E-14,  1.96209420E+04,
                      -8.60437850E+00])),
        transport=gas_transport(geom='linear',
                                diam=4.29,
                                well_depth=324.8,
                                rot_relax=1.0),
        note=u'T2/90')

species(name=u'C3H3',
        atoms='C:3 H:3',
        thermo=(NASA([200.00, 1000.00],
                     [ 1.35110873E+00,  3.27411291E-02, -4.73827407E-05,
                       3.76310220E-08, -1.18541128E-11,  4.07679941E+04,
                       1.52058598E+01]),
                NASA([1000.00, 6000.00],
                     [ 7.14221719E+00,  7.61902211E-03, -2.67460030E-06,
                       4.24914904E-10, -2.51475443E-14,  3.95709594E+04,
                      -1.25848690E+01])),
        transport=gas_transport(geom='linear',
                                diam=4.29,
                                well_depth=324.8,
                                rot_relax=1.0),
        note=u'T7/11')

species(name=u'C4H6',
        atoms='C:4 H:6',
        thermo=(NASA([300.00, 1000.00],
                     [ 1.12844650E-01,  3.43690220E-02, -1.11073920E-05,
                      -9.21066600E-09,  6.20651790E-12,  1.18022700E+04,
                       2.30899960E+01]),
                NASA([1000.00, 3000.00],
                     [ 8.86731340E+00,  1.49186700E-02, -3.15487160E-06,
                      -4.18413300E-10,  1.57612580E-13,  9.13385160E+03,
                      -2.33281710E+01])),
        transport=gas_transport(geom='nonlinear',
                                diam=4.72,
                                well_depth=357.0,
                                rot_relax=1.0),
        note=u'H6W/94')

species(name=u'C4H4',
        atoms='C:4 H:4',
        thermo=(NASA([300.00, 1000.00],
                     [-1.91524790E+00,  5.27508780E-02, -7.16559440E-05,
                       5.50724230E-08, -1.72862280E-11,  3.29785040E+04,
                       3.14199830E+01]),
                NASA([1000.00, 3000.00],
                     [ 6.65070920E+00,  1.61294340E-02, -7.19388750E-06,
                       1.49817870E-09, -1.18641100E-13,  3.11959920E+04,
                      -9.79521180E+00])),
        transport=gas_transport(geom='nonlinear',
                                diam=5.18,
                                well_depth=357.0,
                                rot_relax=1.0),
        note=u'H6W/94')

species(name=u'C4H3-I',
        atoms='C:4 H:3',
        thermo=(NASA([300.00, 1000.00],
                     [ 2.08304120E+00,  4.08342740E-02, -6.21596850E-05,
                       5.16793580E-08, -1.70291840E-11,  5.80051290E+04,
                       1.36174620E+01]),
                NASA([1000.00, 3000.00],
                     [ 9.09781650E+00,  9.22071190E-03, -3.38784410E-06,
                       4.91604980E-10, -1.45297800E-14,  5.66005740E+04,
                      -1.98025970E+01])),
        transport=gas_transport(geom='nonlinear',
                                diam=5.18,
                                well_depth=357.0,
                                rot_relax=1.0),
        note=u'AB1/93')

species(name=u'C4H3-N',
        atoms='C:4 H:3',
        thermo=(NASA([300.00, 1000.00],
                     [-3.16841130E-01,  4.69121000E-02, -6.80938100E-05,
                       5.31799210E-08, -1.65230050E-11,  6.24761990E+04,
                       2.46225590E+01]),
                NASA([1000.00, 3000.00],
                     [ 5.43282790E+00,  1.68609810E-02, -9.43131090E-06,
                       2.57038950E-09, -2.74563090E-13,  6.16006800E+04,
                      -1.56739810E+00])),
        transport=gas_transport(geom='nonlinear',
                                diam=5.18,
                                well_depth=357.0,
                                rot_relax=1.0),
        note=u'H6W/94')

species(name=u'C4H2',
        atoms='C:4 H:2',