!Reduced chemical kinetic mechanism for soot modelling. Reduction performed over the detailed chemical kinetic mechanism of AramcoMech 3.0 + PAH Chemistry starting from benzene to pyrene.
!Authors: Junjun Guo, Peng Liu, Erica Quadarella, Kiran Yalamanchi, Ibraheem Alsheikh, Carson Chu, Fengshan Liu, S. Mani Sarathy, William L. Roberts, Hong G. Im
!Paper: Assessment of physical soot inception model in normal and inverse laminar diffusion flames, submitted to Combust Flame
!King Abdullah University of Science and Technology (KAUST), Clean Combustion Research Center (CCRC)
!
ELEMENTS
C H N O AR 
HE S 
END
SPECIES
AR N2 HE H2 H 
O2 O H2O OH H2O2 
HO2 CO CO2 CH4 CH3 
CH2 CH2(S) CH CH3OH CH3O 
CH2OH CH2O HCO HOCHO C2H6 
C2H5 C2H4 C2H3 CHOCHO C2H3OO 
CHCHO C2H2 C2H H2CC PC2H4OH 
C2H4O1-2 C2H3O1-2 CH3CHO CH3CO CH2CHO 
C2H3OH CH2CO HCCO C3H8 IC3H7 
NC3H7 C3H6 C3H5-A C3H4-P C3H4-A 
C3H3 SC3H4OH C2H3CO C4H71-3 C4H72-2 
C4H6 C4H5-I C4H5-N C4H5-2 C4H4 
C4H3-I C4H3-N C4H2 CH2CHCHCHO CYHEXEN-4J 
CYPENTN-4MJ CYPENTN-4M4J CYPENTN-4M3J CYPENTN-4MTHNE C4H612 
C4H6-2 H2C4O CC5H10 C6H9-A C6H6 
FULVENE C6H5 C6H5OH C5H6 C5H5 
C5H7 CVCCJCVC CVCCVCCJ C5H5OH C5H5O 
C5H4OH C5H4O CJVCCVCCVO CVCCVCCJVO CJVCCVO 
IND C9H7 A2R5 Indene Indenyl 
Indenoxy A-naphthol A1C2H2 A1C2H A1C2H-15 
A1C2H-16 A1C2H-17 A1C2H-18 A2-1 A2-2 
A2 A2C2H-A A2C2H-B Anthracene N2_CS2 
N2_CS4 N2_CS10 N2_CS17 N2_CS42 N2_CS43 
N1_CS2 N1_CS3 N1_CS6 N1_CS13 N1_CS27 
N1_CS33 N1_CS37 A3 A3-1 A3-3 
A3-4 A3-5 A3C2H-C A4 A3R5 
A3_P1_2 A3_P1_4 A3_P1_5 A3_P3_2 A3_P4_2 
A3_P4_4 A3_P4_5 A3_P5_2 A3_P5_4 A3_P5_5 
A1C4H4-A A1C4H4-B C6H5CH2 C6H5CH3 A2CH3A 
A3CH3A A2CH2A A2O_1 Anthracene-4 CVCCVCCVO 
CYC5H71-3 P2 P2-1
END

REACTIONS MOLES CAL/MOLE
!
!
!
!
!
!       2-METHYLHEXANE
!       2-METHYLHEXANE AND ITS CORRESPONDING ALKYL RADICALS;
!       RADICAL SITE DENOTED BY LETTER
!
!       ALL 2-METHYLHEXENES AND ITS CORRESPONDING ALKENYL RADICALS
!       RADICAL SITE DENOTED BY LETTER
!
H2+M=2H+M    4.577E19 -1.4 1.044E5
    H2/2.5/
    H2O/12.0/
    CO/1.9/
    CO2/3.8/
    HE/0.83/
    CH4/2.0/
    C2H6/3.0/
H2+O=H+OH    5.08E4 2.67 6.292E3
H2+OH=H+H2O    4.38E13 0.0 6.99E3
2O+M=O2+M    6.165E15 -0.5 0.0E0
    H2/2.5/
    H2O/12.0/
    AR/0.83/
    CO/1.9/
    CO2/3.8/
    HE/0.83/
    CH4/2.0/
    C2H6/3.0/
O2+H=O+OH    1.04E14 0.0 1.5286E4
H+OH+M=H2O+M    3.5E22 -2.0 0.0E0
    H2/0.73/
    H2O/3.65/
    CH4/2.0/
    C2H6/3.0/
    AR/0.38/
O+H2O=2OH    6.7E7 1.704 1.49868E4
O+H+M=OH+M    4.714E18 -1.0 0.0E0
    H2/2.5/
    H2O/12.0/
    AR/0.75/
    CO/1.5/
    CO2/2.0/
    HE/0.75/
    CH4/2.0/
    C2H6/3.0/
H2O2(+M)=2OH(+M)    2.0E12 0.9 4.8749E4
    H2O/7.65/
    CO2/1.6/
    N2/1.5/
    O2/1.2/
    HE/0.65/
    H2O2/7.7/
    H2/3.7/
    CO/2.8/
    LOW/2.49E24 -2.3E0 4.8749E4/
    TROE/4.3E-1 1.0E-30 1.0E30/
H2O2+H=H2O+OH    2.41E13 0.0 3.97E3
H2O2+H=H2+HO2    2.15E10 1.0 6.0E3
H2O2+O=OH+HO2    9.55E6 2.0 3.97E3
H2O2+OH=H2O+HO2    1.74E12 0.0 3.18E2
    DUP
H2O2+OH=H2O+HO2    7.59E13 0.0 7.269E3
    DUP
HO2+H=2OH    7.079E13 0.0 2.95E2
HO2+H=H2+O2    1.1402E10 1.0827 5.5378E2
HO2+O=OH+O2    3.25E13 0.0 0.0E0
HO2+OH=H2O+O2    2.456E13 0.0 -4.97E2
2HO2=H2O2+O2    1.0E14 0.0 1.1040883E4
    DUP
2HO2=H2O2+O2    1.9E11 0.0 -1.4089248E3
    DUP
H+O2(+M)=HO2(+M)    4.65E12 0.44 0.0E0
    H2/1.3/
    CO/1.9/
    CO2/3.8/
    HE/0.64/
    H2O/10.0/
    AR/0.5/
    CH4/2.0/
    C2H6/3.0/
    LOW/1.737E19 -1.23E0 0.0E0/
    TROE/6.7E-1 1.0E-30 1.0E30 1.0E30/
CO+O(+M)=CO2(+M)    1.362E10 0.0 2.384E3
    H2/2.0/
    H2O/12.0/
    CO/1.75/
    CO2/3.6/
    AR/0.7/
    HE/0.7/
    LOW/1.173E24 -2.79E0 4.191E3/
CO+OH=CO2+H    7.015E4 2.053 -3.557E2
    DUP
CO+OH=CO2+H    5.757E12 -0.664 3.318E2
    DUP
CO+HO2=CO2+OH    1.57E5 2.18 1.794E4
CO+O2=CO2+O    1.119E12 0.0 4.77E4
CH3+H(+M)=CH4(+M)    1.27E16 -0.63 3.83E2
    H2/2.0/
    H2O/6.0/
    AR/0.7/
    CO/1.5/
    CO2/2.0/
    CH4/2.0/
    C2H6/3.0/
    HE/0.7/
    LOW/2.477E33 -4.76E0 2.44E3/
    TROE/7.83E-1 7.4E1 2.941E3 6.964E3/
CH4+H=CH3+H2    6.14E5 2.5 9.587E3
CH4+O=CH3+OH    1.02E9 1.5 8.6E3
!CH4+OH(=)CH3+H2O                                             +5.8300000E+004 +2.6000000E+000 +2.1900000E+003
!M. Baigmohammadi, V. Patel, S. Martinez, S. Panigrahy, A. Ramalingam, U. Burke, K.P. Somers, K.A. Heufer, A. Pekalski, H.J. Curran, A Comprehensive E
CH4+OH=CH3+H2O    5.65476E6 1.93695 2.6562698E3
CH4+HO2=CH3+H2O2    1.13E1 3.74 2.101E4
CH3+HO2=CH4+O2    1.16E5 2.23 -3.022E3
CH4+CH2=2CH3    2.46E6 2.0 8.27E3
!CH2(S)+N2(=)CH2+N2                                           +1.5000000E+013 +0.0000000E+000 +6.0000000E+002
!F. Hayes, W.D. Lawrance, W.S. Staker, K.D. King, Temperature dependences of singlet methylene removal rates, The Journal of Physical Chemistry 100 (1
CH2(S)+N2=CH2+N2    1.26E13 0.0 4.3E2
!F. Hayes, W.D. Lawrance, W.S. Staker, K.D. King, Temperature dependences of singlet methylene removal rates, The Journal of Physical Chemistry 100 (1
CH2(S)+AR=CH2+AR    6.62E12 0.0 4.54E2
!F. Hayes, W.D. Lawrance, W.S. Staker, K.D. King, Temperature dependences of singlet methylene removal rates, The Journal of Physical Chemistry 100 (1
CH2(S)+H2O=CH2+H2O    5.48E13 0.0 -4.3E2
!F. Hayes, W.D. Lawrance, W.S. Staker, K.D. King, Temperature dependences of singlet methylene removal rates, The Journal of Physical Chemistry 100 (1
CH2(S)+CO=CH2+CO    1.26E13 0.0 4.3E2
!F. Hayes, W.D. Lawrance, W.S. Staker, K.D. King, Temperature dependences of singlet methylene removal rates, The Journal of Physical Chemistry 100 (1
CH2(S)+CO2=CH2+CO2    5.48E13 0.0 -4.3E2
!P.-F. Lee, H. Matsui, W.-Y. Chen, N.-S. Wang, Production of H and O (3P) Atoms in the Reaction of CH2 with O2, The Journal of Physical Chemistry A 11
CH2(S)+O2=>H+OH+CO    1.2014E12 0.0 0.0E0
!P.-F. Lee, H. Matsui, W.-Y. Chen, N.-S. Wang, Production of H and O (3P) Atoms in the Reaction of CH2 with O2, The Journal of Physical Chemistry A 11
CH2(S)+O2=CO+H2O    5.1488E11 0.0 0.0E0
!CH2(S)+AR(=)CH2+AR                                           +9.0000000E+012 +0.0000000E+000 +6.0000000E+002
!CH2(S)+H2O(=)CH2+H2O                                         +3.0000000E+013 +0.0000000E+000 +0.0000000E+000
!CH2(S)+CO(=)CH2+CO                                           +9.0000000E+012 +0.0000000E+000 +0.0000000E+000
!CH2(S)+CO2(=)CH2+CO2                                         +7.0000000E+012 +0.0000000E+000 +0.0000000E+000
!CH2(S)+O2=)H+OH+CO                                           +2.8000000E+013 +0.0000000E+000 +0.0000000E+000
!CH2(S)+O2(=)CO+H2O                                           +1.2000000E+013 +0.0000000E+000 +0.0000000E+000
CH2(S)+O=CO+H2    1.5E13 0.0 0.0E0
CH2(S)+O=HCO+H    1.5E13 0.0 0.0E0
CH2(S)+H2=CH3+H    7.0E13 0.0 0.0E0
CH2(S)+H=CH+H2    3.0E13 0.0 0.0E0
CH2(S)+OH=CH2O+H    3.0E13 0.0 0.0E0
CH2(S)+CO2=CH2O+CO    1.4E13 0.0 0.0E0
CH2+H(+M)=CH3(+M)    2.5E16 -0.8 0.0E0
    H2/2.0/
    H2O/6.0/
    AR/0.7/
    CO/1.5/
    CO2/2.0/
    CH4/2.0/
    C2H6/3.0/
    HE/0.7/
    LOW/3.2E27 -3.14E0 1.23E3/
    TROE/6.8E-1 7.8E1 1.995E3 5.59E3/
CH2+O2=HCO+OH    1.06E13 0.0 1.5E3
CH2+O2=>CO2+2H    2.64E12 0.0 1.5E3
CH2+O=>CO+2H    5.0E13 0.0 0.0E0
CH2+H=CH+H2    3.0E13 0.0 0.0E0
CH2+OH=CH+H2O    1.13E7 2.0 3.0E3
CH+O2=HCO+O    3.3E13 0.0 0.0E0
CH+O=CO+H    5.7E13 0.0 0.0E0
CH+OH=HCO+H    3.0E13 0.0 0.0E0
CH+H2O=H+CH2O    1.774E16 -1.22 2.38E1
CH+CO2=HCO+CO    1.7E12 0.0 6.85E2
!F. Zhang, C. Huang, B. Xie, X. Wu, Revisiting the chemical kinetics of CH3?+?O2 and its impact on methane ignition, Combustion and Flame 200 (2019) 1
CH3+O2=CH3O+O    1.12E-1 4.31 2.532E4
!F. Zhang, C. Huang, B. Xie, X. Wu, Revisiting the chemical kinetics of CH3?+?O2 and its impact on methane ignition, Combustion and Flame 200 (2019) 1
CH3+O2=CH2O+OH    8.94E-3 3.93 6.098E3
!PLOG /                                       +1.0000000E+002 +4.8200000E-166 +4.7490000E+001 -4.9950000E+004 / !Removed
CH3+O=CH2O+H    5.54E13 0.05 -1.36E2
!Turanyi, A.S. Tomlin, Analysis of kinetic reaction mechanisms, Springer2014.- M. Baigmohammadi, V. Patel, S. Martinez, S. Panigrahy, A. Ramalingam, U
CH3+OH=CH2(S)+H2O    4.936E14 -0.669 -4.458E2
    PLOG/1.0E-2 4.936E14 -6.69E-1 -4.458E2/
    PLOG/1.0E-1 1.207E15 -7.78E-1 -1.756E2/
    PLOG/1.0E0 5.282E17 -1.518E0 1.772E3/
    PLOG/1.0E1 4.788E23 -3.155E0 7.003E3/
    PLOG/1.0E2 8.433E19 -1.962E0 8.244E3/
!CH3+O2(=)CH3O+O                                              +7.5460000E+012 +0.0000000E+000 +2.8320000E+004
!CH3+O2(=)CH2O+OH                                             +2.6410000E+000 +3.2830000E+000 +8.1050000E+003
CH3+OH=CH2O+H2    3.502E5 1.441 -3.244E3
    PLOG/1.0E-2 3.502E5 1.441E0 -3.244E3/
    PLOG/1.0E-1 8.854E5 1.327E0 -2.975E3/
    PLOG/1.0E0 1.65E7 9.73E-1 -2.01E3/
    PLOG/1.0E1 5.374E9 2.87E-1 2.8E2/
    PLOG/1.0E2 9.494E18 -2.199E0 9.769E3/
CH3+OH=CH2OH+H    1.621E10 0.965 3.21E3
    PLOG/1.0E-2 1.621E10 9.65E-1 3.214E3/
    PLOG/1.0E-1 1.807E10 9.5E-1 3.247E3/
    PLOG/1.0E0 4.686E10 8.33E-1 3.566E3/
    PLOG/1.0E1 1.525E13 1.34E-1 5.641E3/
    PLOG/1.0E2 3.59E14 -1.86E-1 8.601E3/
CH3+OH=H+CH3O    1.186E9 1.016 1.194E4
    PLOG/1.0E-2 1.186E9 1.016E0 1.194E4/
    PLOG/1.0E-1 1.188E9 1.016E0 1.194E4/
    PLOG/1.0E0 1.23E9 1.011E0 1.195E4/
    PLOG/1.0E1 1.798E9 9.65E-1 1.206E4/
    PLOG/1.0E2 5.242E10 5.51E-1 1.307E4/
CH3+OH=CH2+H2O    4.293E4 2.568 3.9978E3
CH3+HO2=CH3O+OH    1.0E12 0.269 -6.875E2
CH3OH(+M)=CH3+OH(+M)    2.084E18 -0.615 9.25406E4
    LOW/1.5E43 -6.995E0 9.79922E4/
    TROE/-4.748E-1 3.558E4 1.116E3 9.023E3/
CH3OH(+M)=CH2(S)+H2O(+M)    3.121E18 -1.017 9.1712E4
    LOW/1.43E47 -8.227E0 9.94171E4/
    TROE/2.545E0 3.29E3 4.732E4 4.711E4/
CH3OH(+M)=CH2OH+H(+M)    7.896E-3 5.038 8.44674E4
    LOW/3.39E42 -7.244E0 1.052303E5/
    TROE/-7.391E1 3.705E4 4.15E4 5.22E3/
CH3OH+H=CH3O+H2    1.99E5 2.56 1.03E4
CH3OH+H=CH2OH+H2    3.07E5 2.55 5.44E3
CH3OH+O=CH3O+OH    3.88E4 2.5 3.08E3
CH3OH+O=CH2OH+OH    3.88E5 2.5 3.08E3
CH3OH+OH=CH3O+H2O    1.5E2 3.03 -7.63E2
CH3OH+OH=CH2OH+H2O    3.08E4 2.65 -8.067E2
CH3OH+O2=CH3O+HO2    3.58E4 2.27 4.27645E4
CH3OH+O2=CH2OH+HO2    3.58E5 2.27 4.27645E4
CH3OH+HO2=CH3O+H2O2    1.22E12 0.0 2.00707E4
CH3OH+HO2=CH2OH+H2O2    3.26E13 0.0 1.87822E4
CH3OH+CH3=CH2OH+CH4    2.13E-1 3.953 7.0551E3
CH3OH+CH3=CH3O+CH4    3.22E3 2.425 8.5795E3
CH3OH+HCO=CH2OH+CH2O    9.63E3 2.9 1.311E4
CH3OH+CH3O=CH2OH+CH3OH    3.0E11 0.0 4.074E3
CH2OH+O2=CH2O+HO2    1.51E15 -1.0 0.0E0
    DUP
CH2OH+O2=CH2O+HO2    2.41E14 0.0 5.017E3
    DUP
CH2OH+H=CH2O+H2    6.0E12 0.0 0.0E0
CH2OH+HO2=CH2O+H2O2    1.2E13 0.0 0.0E0
CH2OH+HCO=2CH2O    1.8E14 0.0 0.0E0
CH2OH+HCO=CH3OH+CO    1.0E13 0.0 0.0E0
CH2OH+CH3O=CH2O+CH3OH    2.4E13 0.0 0.0E0
CH2OH+OH=H2O+CH2O    2.4E13 0.0 0.0E0
CH2OH+O=OH+CH2O    4.2E13 0.0 0.0E0
2CH2OH=CH2O+CH3OH    3.0E12 0.0 0.0E0
CH3O+O2=CH2O+HO2    4.38E-19 9.5 -5.501E3
CH3O+H=CH2O+H2    2.0E13 0.0 0.0E0
CH3O+HO2=CH2O+H2O2    3.01E11 0.0 0.0E0
CH3O+CH3=CH2O+CH4    1.2E13 0.0 0.0E0
2CH3O=CH3OH+CH2O    6.03E13 0.0 0.0E0
HCO+H(+M)=CH2O(+M)    1.09E12 0.48 -2.6E2
    H2/2.0/
    H2O/6.0/
    AR/0.7/
    CO/1.5/
    CO2/2.0/
    CH4/2.0/
    C2H6/3.0/
    HE/0.7/
    LOW/1.35E24 -2.57E0 1.425E3/
    TROE/7.824E-1 2.71E2 2.755E3 6.57E3/
CO+H2(+M)=CH2O(+M)    4.3E7 1.5 7.96E4
    H2/2.0/
    H2O/6.0/
    AR/0.7/
    CO/1.5/
    CO2/2.0/
    CH4/2.0/
    C2H6/3.0/
    HE/0.7/
    LOW/5.07E27 -3.42E0 8.4348E4/
    TROE/9.32E-1 1.97E2 1.54E3 1.03E4/
CH2O+O2=HCO+HO2    8.07E15 0.0 5.342E4
CH2O+O=HCO+OH    6.26E9 1.15 2.26E3
CH2O+H=HCO+H2    5.74E7 1.9 2.74E3
CH2O+OH=HCO+H2O    7.82E7 1.63 -1.055E3
CH2O+HO2=HCO+H2O2    1.88E4 2.7 1.152E4
CH2O+CH3=HCO+CH4    3.83E1 3.36 4.312E3
CH2O+CH3O=HCO+CH3OH    6.62E11 0.0 2.294E3
HCO+M=H+CO+M    5.7E11 0.66 1.487E4
    H2/2.0/
    H2O/6.0/
    CO/1.5/
    CO2/2.0/
    CH4/2.0/
    C2H6/3.0/
HCO+O2=CO+HO2    7.58E12 0.0 4.1E2
HCO+O=CO+OH    3.02E13 0.0 0.0E0
HCO+H=CO+H2    7.34E13 0.0 0.0E0
HCO+OH=CO+H2O    3.011E13 0.0 0.0E0
HCO+CH3=CO+CH4    2.65E13 0.0 0.0E0
2HCO=CO+CH2O    1.8E13 0.0 0.0E0
HCO+O=CO2+H    3.0E13 0.0 0.0E0
HCO+HO2=>CO2+H+OH    3.0E13 0.0 0.0E0
2HCO=>H2+2CO    3.0E12 0.0 0.0E0
!E.E. Dames, D.M. Golden, Master equation modeling of the unimolecular decompositions of hydroxymethyl (CH2OH) and methoxy (CH3O) radicals to formald
CH2OH(+M)=CH2O+H(+M)    7.37E10 0.811 1.992E4
    HE/0.67/
    LOW/3.5E21 -1.99E0 1.2077E4/
    TROE/8.44E-1 9.0E2 1.0E0 3.315E3/
!E.E. Dames, D.M. Golden, Master equation modeling of the unimolecular decompositions of hydroxymethyl (CH2OH) and methoxy (CH3O) radicals to formald
CH3O(+M)=CH2O+H(+M)    1.13E10 1.21 1.212E4
    HE/0.67/
    LOW/6.022E16 -5.47E-1 9.07E3/
    TROE/3.41E-1 2.8E1 1.0E3 2.339E3/
HOCHO=CO+H2O    2.45E12 0.0 6.047E4
HOCHO=CO2+H2    2.95E9 0.0 4.852E4
HOCHO+H=>H2+CO2+H    4.24E6 2.1 4.868E3
HOCHO+H=>H2+CO+OH    6.03E13 -0.35 2.988E3
HOCHO+O=>CO+2OH    1.77E18 -1.9 2.975E3
HOCHO+OH=>H2O+CO2+H    2.62E6 2.06 9.16E2
HOCHO+OH=>H2O+CO+OH    1.85E7 1.51 -9.62E2
HOCHO+CH3=>CH4+CO+OH    3.9E-7 5.8 2.2E3
HOCHO+HO2=>H2O2+CO+OH    1.0E12 0.0 1.192E4
! WHalf - B. Wang, H. Hou, L.M. Yoder, J.T. Muckerman, C. Fockenberg, Experimental and theoretical investigations on the methyl- methyl recombination
2CH3(+M)=C2H6(+M)    1.1385E15 -0.69 1.749E2
    H2O/5.0/
    CO/2.0/
    CO2/3.0/
    LOW/4.027E31 -3.75E0 9.816E2/
    TROE/0.0E0 5.7E2 1.0E30 1.0E30/
C2H5+H(+M)=C2H6(+M)    5.21E17 -0.99 1.58E3
    H2/2.0/
    H2O/6.0/
    AR/0.7/
    CO/1.5/
    CO2/2.0/
    CH4/2.0/
    C2H6/3.0/
    HE/0.7/
    LOW/1.99E41 -7.08E0 6.685E3/
    TROE/8.42E-1 1.25E2 2.219E3 6.882E3/
2CH3=H+C2H5    4.74E12 0.105 1.06643E4
    PLOG/1.0E-2 4.74E12 1.05E-1 1.06643E4/
    PLOG/1.0E-1 2.57E13 -9.6E-2 1.14061E4/
    PLOG/1.0E0 3.1E14 -3.62E-1 1.33725E4/
    PLOG/1.0E1 2.15E10 8.85E-1 1.35325E4/
    PLOG/1.0E2 1.032E2 3.23E0 1.12361E4/
C2H6+O2=C2H5+HO2    6.03E13 0.0 5.187E4
C2H6+O=C2H5+OH    3.55E6 2.4 5.83E3
C2H6+H=C2H5+H2    1.15E8 1.9 7.53E3
C2H6+OH=C2H5+H2O    1.48E7 1.9 9.5E2
C2H6+HO2=C2H5+H2O2    3.46E1 3.61 1.692E4
C2H6+CH=C2H5+CH2    1.1E14 0.0 -2.6E2
C2H6+CH2(S)=C2H5+CH3    1.2E14 0.0 0.0E0
C2H6+CH3=C2H5+CH4    5.55E-4 4.72 3.231E3
C2H6+CH3O=C2H5+CH3OH    2.41E11 0.0 7.09E3
C2H4+H(+M)=C2H5(+M)    9.569E8 1.463 1.355E3
    H2/2.0/
    H2O/6.0/
    CH4/2.0/
    CO/1.5/
    CO2/2.0/
    C2H6/3.0/
    AR/0.7/
    LOW/1.419E39 -6.642E0 5.769E3/
    TROE/-5.69E-1 2.99E2 -9.147E3 1.524E2/
C2H5+H=C2H4+H2    2.0E12 0.0 0.0E0
2C2H4=C2H5+C2H3    4.82E14 0.0 7.153E4
C2H5+CH3=CH4+C2H4    1.18E4 2.45 -2.921E3
C2H5+O=CH3CHO+H    1.1E14 0.0 0.0E0
C2H5+O2=C2H4+HO2    2.094E9 0.49 -3.914E2
    PLOG/4.0E-2 2.094E9 4.9E-1 -3.914E2/
    PLOG/1.0E0 1.843E7 1.13E0 -7.206E2/
    PLOG/1.0E1 7.561E14 -1.01E0 4.749E3/
C2H5+O2=C2H4O1-2+OH    1.303E3 1.93 -5.027E2
    PLOG/4.0E-2 1.303E3 1.93E0 -5.027E2/
    PLOG/1.0E0 2.438E2 2.18E0 -6.25E1/
    PLOG/1.0E1 4.621E9 1.5E-1 5.409E3/
C2H5+O2=CH3CHO+OH    4.908E-6 4.76 2.543E2
    PLOG/4.0E-2 4.908E-6 4.76E0 2.543E2/
    PLOG/1.0E0 6.803E-2 3.57E0 2.643E3/
    PLOG/1.0E1 8.265E2 2.41E0 5.285E3/
C2H4O1-2=CH3+HCO    3.63E13 0.0 5.72E4
C2H4O1-2=CH3CHO    7.407E12 0.0 5.38E4
C2H4O1-2+H=C2H3O1-2+H2    8.0E13 0.0 9.68E3
C2H4O1-2+OH=C2H3O1-2+H2O    1.78E13 0.0 3.61E3
C2H4O1-2+HO2=C2H3O1-2+H2O2    1.13E13 0.0 3.043E4
C2H4O1-2+CH3=C2H3O1-2+CH4    1.07E12 0.0 1.183E4
C2H4O1-2+CH3O=C2H3O1-2+CH3OH    1.2E11 0.0 6.75E3
C2H3O1-2=CH3CO    8.5E14 0.0 1.4E4
C2H3O1-2=CH2CHO    1.0E14 0.0 1.4E4
C2H3+H(+M)=C2H4(+M)    6.08E12 0.27 2.8E2
    H2/2.0/
    H2O/6.0/
    AR/0.7/
    CO/1.5/
    CO2/2.0/
    CH4/2.0/
    C2H6/3.0/
    HE/0.7/
    LOW/1.4E30 -3.86E0 3.32E3/
    TROE/7.82E-1 2.075E2 2.663E3 6.095E3/
C2H4(+M)=H2+H2CC(+M)    8.0E12 0.44 8.877E4
    H2/2.0/
    H2O/6.0/
    CH4/2.0/
    CO/1.5/
    CO2/2.0/
    C2H6/3.0/
    AR/0.7/
    LOW/7.0E50 -9.31E0 9.986E4/
    TROE/7.345E-1 1.8E2 1.035E3 5.417E3/
C2H4+O2=C2H3+HO2    4.22E13 0.0 5.76231E4
C2H4+H=C2H3+H2    5.07E7 1.93 1.295E4
C2H4+OH=C2H3+H2O    2.23E4 2.745 2.2155E3
C2H4+CH3O=C2H3+CH3OH    1.2E11 0.0 6.75E3
C2H4+CH3=C2H3+CH4    9.76E2 2.947 1.5148E4
    DUP
C2H4+CH3=C2H3+CH4    8.13E-5 4.417 8.8358E3
    DUP
C2H4+O=CH3+HCO    7.453E6 1.88 1.83E2
C2H4+O=CH2CHO+H    6.098E6 1.88 1.83E2
CH+CH4=C2H4+H    6.0E13 0.0 0.0E0
CH2(S)+CH3=C2H4+H    2.0E13 0.0 0.0E0
C2H4+OH=CH3+CH2O    5.35E0 2.92 -1.7327E3
    PLOG/1.0E-2 5.35E0 2.92E0 -1.7327E3/
    PLOG/2.5E-2 3.19E1 2.71E0 -1.1723E3/
    PLOG/1.0E-1 5.55E2 2.36E0 -1.808E2/
    PLOG/1.0E0 1.78E5 1.68E0 2.0605E3/
    PLOG/1.0E1 2.37E9 5.6E-1 6.0067E3/
    PLOG/1.0E2 2.76E13 -5.0E-1 1.14551E4/
C2H4+OH=CH3CHO+H    2.37E-7 5.3 -2.0506E3
    PLOG/1.0E-2 2.37E-7 5.3E0 -2.0506E3/
    PLOG/2.5E-2 8.73E-5 4.57E0 -6.18E2/
    PLOG/1.0E-1 4.03E-1 3.54E0 1.8817E3/
    PLOG/1.0E0 2.38E-2 3.91E0 1.7227E3/
    PLOG/1.0E1 8.25E8 1.01E0 1.05073E4/
    PLOG/1.0E2 6.8E9 8.1E-1 1.38673E4/
C2H4+OH=C2H3OH+H    1.04E4 2.6 4.121E3
    PLOG/1.0E-2 1.04E4 2.6E0 4.121E3/
    PLOG/2.5E-2 1.07E4 2.6E0 4.129E3/
    PLOG/1.0E-1 1.52E4 2.56E0 4.2383E3/
    PLOG/1.0E0 3.19E5 2.19E0 5.2556E3/
    PLOG/1.0E1 1.94E8 1.43E0 7.8288E3/
    PLOG/1.0E2 8.55E10 7.5E-1 1.14908E4/
C2H4+OH=PC2H4OH    1.74E43 -10.461 7.6987E3
    PLOG/1.0E-2 1.74E43 -1.0461E1 7.6987E3/
    PLOG/2.5E-2 3.25E37 -8.629E0 5.2147E3/
    PLOG/1.0E-1 1.84E35 -7.75E0 4.9089E3/
    PLOG/1.0E0 2.56E36 -7.752E0 6.9461E3/
    PLOG/1.0E1 3.7E33 -6.573E0 7.6059E3/
    PLOG/1.0E2 1.12E26 -4.101E0 5.757E3/
C2H4+HO2=C2H4O1-2+OH    3.345E12 0.0 1.719E4
C2H2+H(+M)=C2H3(+M)    1.71E10 1.266 2.709E3
    H2/2.0/
    H2O/6.0/
    AR/0.7/
    CO/1.5/
    CO2/2.0/
    CH4/2.0/
    C2H6/3.0/
    HE/0.7/
    LOW/6.346E31 -4.664E0 3.78E3/
    TROE/7.88E-1 -1.02E4 1.0E-30/
C2H3+O2=C2H3OO    4.07E27 -4.67 5.222E3
    DUP
    PLOG/1.0E-2 1.55E24 -5.45E0 9.662E3/
    PLOG/1.0E-1 3.48E56 -1.501E1 1.916E4/
    PLOG/3.16E-1 1.25E64 -1.697E1 2.129E4/
    PLOG/1.0E0 3.34E61 -1.579E1 2.015E4/
    PLOG/3.16E0 7.34E53 -1.311E1 1.73E4/
    PLOG/1.0E1 4.16E48 -1.121E1 1.6E4/
    PLOG/3.16E1 2.33E43 -9.38E0 1.481E4/
    PLOG/1.0E2 3.41E39 -8.04E0 1.436E4/
C2H3+O2=C2H3OO    4.07E27 -4.67 5.222E3
    DUP
    PLOG/1.0E-2 1.78E-9 4.15E0 -4.707E3/
    PLOG/1.0E-1 2.36E22 -4.52E0 2.839E3/
    PLOG/3.16E-1 2.0E26 -5.43E0 2.725E3/
    PLOG/1.0E0 6.13E28 -5.89E0 3.154E3/
    PLOG/3.16E0 2.14E29 -5.8E0 3.52E3/
    PLOG/1.0E1 3.48E28 -5.37E0 3.636E3/
    PLOG/3.16E1 3.32E27 -4.95E0 3.61E3/
    PLOG/1.0E2 1.03E27 -4.72E0 3.68E3/
C2H3+O2=CHCHO+OH    2.84E14 -0.8 7.232E3
    DUP
    PLOG/1.0E-2 3.91E11 -1.1E-1 2.131E3/
    PLOG/1.0E-1 1.13E9 5.5E-1 4.6E1/
    PLOG/3.16E-1 8.46E8 5.6E-1 7.0E-1/
    PLOG/1.0E0 2.75E14 -1.83E0 4.6E0/
    PLOG/3.16E0 2.58E20 -2.84E0 7.53E3/
    PLOG/1.0E1 9.18E14 -2.26E0 -4.0E-1/
    PLOG/3.16E1 6.11E25 -4.21E0 1.305E4/
    PLOG/1.0E2 1.65E30 -5.35E0 1.843E4/
C2H3+O2=CHCHO+OH    2.84E14 -0.8 7.232E3
    DUP
    PLOG/1.0E-2 9.91E11 -6.6E-1 -6.0E-1/
    PLOG/1.0E-1 6.94E14 -1.16E0 4.542E3/
    PLOG/3.16E-1 2.79E13 -7.2E-1 3.479E3/
    PLOG/1.0E0 4.99E11 -1.4E-1 1.995E3/
    PLOG/3.16E0 2.35E10 2.3E-1 1.573E3/
    PLOG/1.0E1 1.7E14 -8.2E-1 4.45E3/
    PLOG/3.16E1 1.42E11 5.0E-2 3.774E3/
    PLOG/1.0E2 3.17E11 -2.0E-2 5.338E3/
C2H3+O2=CH2CHO+O    1.76E12 0.15 4.205E3
    DUP
    PLOG/1.0E-2 7.88E20 -2.67E0 6.742E3/
    PLOG/1.0E-1 7.72E20 -2.67E0 6.713E3/
    PLOG/3.16E-1 9.87E20 -2.7E0 6.724E3/
    PLOG/1.0E0 7.1E20 -2.65E0 6.489E3/
    PLOG/3.16E0 4.5E20 -2.53E0 6.406E3/
    PLOG/1.0E1 1.76E23 -3.22E0 8.697E3/
    PLOG/3.16E1 3.14E25 -3.77E0 1.153E4/
    PLOG/1.0E2 1.02E26 -3.8E0 1.391E4/
C2H3+O2=CH2CHO+O    1.76E12 0.15 4.205E3
    DUP
    PLOG/1.0E-2 1.36E10 6.2E-1 -2.776E2/
    PLOG/1.0E-1 1.42E10 6.2E-1 -2.477E2/
    PLOG/3.16E-1 1.66E10 6.0E-1 -1.625E2/
    PLOG/1.0E0 2.02E10 5.8E-1 3.84E1/
    PLOG/3.16E0 9.75E9 6.7E-1 2.48E2/
    PLOG/1.0E1 7.34E9 7.2E-1 7.781E2/
    PLOG/3.16E1 1.57E9 9.2E-1 1.219E3/
    PLOG/1.0E2 7.85E7 1.28E0 1.401E3/
C2H3+O2=C2H2+HO2    6.49E6 1.5 5.218E3
    DUP
    PLOG/1.0E-2 1.08E7 1.28E0 3.322E3/
    PLOG/1.0E-1 7.75E6 1.33E0 3.216E3/
    PLOG/3.16E-1 1.21E7 1.27E0 3.311E3/
    PLOG/1.0E0 2.15E7 1.19E0 3.367E3/
    PLOG/3.16E0 1.13E8 1.0E0 3.695E3/
    PLOG/1.0E1 1.31E11 1.2E-1 5.872E3/
    PLOG/3.16E1 1.19E9 8.2E-1 5.617E3/
    PLOG/1.0E2 1.06E17 -1.45E0 1.223E4/
C2H3+O2=C2H2+HO2    6.49E6 1.5 5.218E3
    DUP
    PLOG/1.0E-2 4.76E1 2.75E0 -7.964E2/
    PLOG/1.0E-1 5.16E1 2.73E0 -7.683E2/
    PLOG/3.16E-1 5.55E1 2.73E0 -6.585E2/
    PLOG/1.0E0 4.6E1 2.76E0 -4.928E2/
    PLOG/3.16E0 3.75E0 3.07E0 -6.01E2/
    PLOG/1.0E1 5.48E0 3.07E0 8.57E1/
    PLOG/3.16E1 4.47E8 0.0E0 9.55E2/
    PLOG/1.0E2 2.02E1 2.94E0 1.847E3/
C2H3+O2=CHOCHO+H    3.08E12 -0.26 3.277E3
    DUP
    PLOG/1.0E-2 4.79E14 -1.03E0 9.12E2/
    PLOG/1.0E-1 5.03E14 -1.04E0 9.225E2/
    PLOG/3.16E-1 6.43E14 -1.07E0 9.829E2/
    PLOG/1.0E0 3.73E15 -1.29E0 1.441E3/
    PLOG/3.16E0 2.44E18 -2.13E0 3.234E3/
    PLOG/1.0E1 1.3E15 -1.09E0 2.393E3/
    PLOG/3.16E1 3.57E33 -6.5E0 1.491E4/
    PLOG/1.0E2 3.28E31 -5.76E0 1.625E4/
C2H3+O2=CHOCHO+H    3.08E12 -0.26 3.277E3
    DUP
    PLOG/1.0E-2 2.8E-4 4.04E0 -7.019E3/
    PLOG/1.0E-1 3.45E-4 4.01E0 -6.978E3/
    PLOG/3.16E-1 9.73E-4 3.89E0 -6.768E3/
    PLOG/1.0E0 4.98E-1 3.15E0 -5.496E3/
    PLOG/3.16E0 1.34E5 1.67E0 -2.931E3/
    PLOG/1.0E1 4.5E15 -3.08E0 -4.836E3/
    PLOG/3.16E1 3.84E10 2.2E-1 9.413E2/
    PLOG/1.0E2 2.75E8 8.3E-1 8.576E2/
C2H3+O2=CH2CO+OH    1.17E3 2.43 7.074E3
    DUP
    PLOG/1.0E-2 8.66E2 2.41E0 6.061E3/
    PLOG/1.0E-1 8.91E2 2.41E0 6.078E3/
    PLOG/3.16E-1 9.43E2 2.4E0 6.112E3/
    PLOG/1.0E0 1.06E3 2.39E0 6.18E3/
    PLOG/3.16E0 1.09E3 2.38E0 6.179E3/
    PLOG/1.0E1 1.39E3 2.36E0 6.074E3/
    PLOG/3.16E1 2.49E6 1.42E0 8.48E3/
    PLOG/1.0E2 1.66E10 3.6E-1 1.201E4/
C2H3+O2=CH2CO+OH    1.17E3 2.43 7.074E3
    DUP
    PLOG/1.0E-2 1.82E-1 3.12E0 1.331E3/
    PLOG/1.0E-1 2.07E-1 3.11E0 1.383E3/
    PLOG/3.16E-1 2.71E-1 3.08E0 1.496E3/
    PLOG/1.0E0 5.26E-1 3.01E0 1.777E3/
    PLOG/3.16E0 1.37E0 2.9E0 2.225E3/
    PLOG/1.0E1 4.19E-1 2.93E0 2.052E3/
    PLOG/3.16E1 1.19E-4 4.21E0 2.043E3/
    PLOG/1.0E2 1.3E-3 3.97E0 3.414E3/
C2H3+O2=CH2O+HCO    1.16E16 -1.13 3.791E3
    DUP
    PLOG/1.0E-2 2.49E36 -7.6E0 1.264E4/
    PLOG/1.0E-1 2.43E36 -7.6E0 1.261E4/
    PLOG/3.16E-1 1.95E36 -7.57E0 1.249E4/
    PLOG/1.0E0 2.73E35 -7.32E0 1.182E4/
    PLOG/3.16E0 1.43E36 -7.47E0 1.246E4/
    PLOG/1.0E1 5.18E35 -7.2E0 1.343E4/
    PLOG/3.16E1 3.19E20 -2.57E0 5.578E3/
    PLOG/1.0E2 2.73E33 -6.28E0 1.6E4/
C2H3+O2=CH2O+HCO    1.16E16 -1.13 3.791E3
    DUP
    PLOG/1.0E-2 4.54E15 -1.28E0 5.153E2/
    PLOG/1.0E-1 4.59E15 -1.28E0 5.13E2/
    PLOG/3.16E-1 4.81E15 -1.29E0 5.206E2/
    PLOG/1.0E0 6.08E15 -1.31E0 6.457E2/
    PLOG/3.16E0 9.45E15 -1.36E0 1.066E3/
    PLOG/1.0E1 2.56E15 -1.18E0 1.429E3/
    PLOG/3.16E1 1.03E69 -1.923E1 1.476E4/
    PLOG/1.0E2 4.21E10 1.9E-1 8.306E2/
C2H3+O2=>CH2O+H+CO    1.16E16 -1.13 3.791E3
    DUP
    PLOG/1.0E-2 5.82E36 -7.6E0 1.264E4/
    PLOG/1.0E-1 5.66E36 -7.6E0 1.261E4/
    PLOG/3.16E-1 4.55E36 -7.57E0 1.249E4/
    PLOG/1.0E0 6.36E35 -7.32E0 1.182E4/
    PLOG/3.16E0 3.35E36 -7.47E0 1.246E4/
    PLOG/1.0E1 1.21E36 -7.2E0 1.343E4/
    PLOG/3.16E1 7.43E20 -2.57E0 5.578E3/
    PLOG/1.0E2 6.36E33 -6.28E0 1.6E4/
C2H3+O2=>CH2O+H+CO    1.16E16 -1.13 3.791E3
    DUP
    PLOG/1.0E-2 1.06E16 -1.28E0 5.153E2/
    PLOG/1.0E-1 1.07E16 -1.28E0 5.13E2/
    PLOG/3.16E-1 1.13E16 -1.29E0 5.206E2/
    PLOG/1.0E0 1.42E16 -1.31E0 6.457E2/
    PLOG/3.16E0 2.2E16 -1.36E0 1.066E3/
    PLOG/1.0E1 5.98E15 -1.18E0 1.429E3/
    PLOG/3.16E1 2.39E69 -1.923E1 1.476E4/
    PLOG/1.0E2 9.81E10 1.9E-1 8.306E2/
C2H3+O2=CO+CH3O    3.09E13 -0.89 3.682E3
    DUP
    PLOG/1.0E-2 8.19E18 -2.66E0 3.201E3/
    PLOG/1.0E-1 4.06E14 -1.32E0 8.858E2/
    PLOG/3.16E-1 4.34E14 -1.33E0 9.006E2/
    PLOG/1.0E0 1.03E11 -3.3E-1 -7.478E2/
    PLOG/3.16E0 1.89E12 -3.0E0 -8.995E3/
    PLOG/1.0E1 1.93E24 -5.63E0 1.8E0/
    PLOG/3.16E1 1.1E18 -2.22E0 5.178E3/
    PLOG/1.0E2 5.79E32 -6.45E0 1.681E4/
C2H3+O2=CO+CH3O    3.09E13 -0.89 3.682E3
    DUP
    PLOG/1.0E-2 1.29E9 1.8E-1 -1.717E3/
    PLOG/1.0E-1 5.99E11 -2.93E0 -9.564E3/
    PLOG/3.16E-1 2.91E11 -2.93E0 -1.012E4/
    PLOG/1.0E0 5.77E21 -3.54E0 4.772E3/
    PLOG/3.16E0 4.99E15 -1.62E0 1.849E3/
    PLOG/1.0E1 9.33E16 -1.96E0 3.324E3/
    PLOG/3.16E1 1.02E72 -2.069E1 1.586E4/
    PLOG/1.0E2 1.1E9 3.1E-1 1.024E3/
C2H3+O2=CO2+CH3    6.16E13 -1.05 3.743E3
    DUP
    PLOG/1.0E-2 2.37E35 -7.76E0 1.263E4/
    PLOG/1.0E-1 1.73E35 -7.72E0 1.252E4/
    PLOG/3.16E-1 4.47E34 -7.55E0 1.214E4/
    PLOG/1.0E0 7.25E31 -6.7E0 1.044E4/
    PLOG/3.16E0 3.63E35 -7.75E0 1.283E4/
    PLOG/1.0E1 2.09E35 -7.53E0 1.405E4/
    PLOG/3.16E1 3.84E18 -2.44E0 5.408E3/
    PLOG/1.0E2 1.21E32 -6.32E0 1.619E4/
C2H3+O2=CO2+CH3    6.16E13 -1.05 3.743E3
    DUP
    PLOG/1.0E-2 6.27E13 -1.16E0 4.063E2/
    PLOG/1.0E-1 6.24E13 -1.16E0 4.014E2/
    PLOG/3.16E-1 6.12E13 -1.16E0 3.97E2/
    PLOG/1.0E0 5.32E13 -1.14E0 4.467E2/
    PLOG/3.16E0 1.45E14 -1.26E0 9.877E2/
    PLOG/1.0E1 5.02E13 -1.11E0 1.409E3/
    PLOG/3.16E1 1.4E70 -2.011E1 1.543E4/
    PLOG/1.0E2 9.21E8 2.5E-1 8.553E2/
C2H3OO=CHCHO+OH    5.89E36 -7.1 5.144E4
    DUP
    PLOG/1.0E-2 3.64E49 -1.213E1 6.742E4/
    PLOG/1.0E-1 1.44E36 -9.92E0 4.122E4/
    PLOG/3.16E-1 4.18E40 -1.053E1 4.367E4/
    PLOG/1.0E0 3.79E46 -1.072E1 5.19E4/
    PLOG/3.16E0 1.6E49 -1.124E1 5.415E4/
    PLOG/1.0E1 2.38E51 -1.164E1 5.698E4/
    PLOG/3.16E1 2.0E54 -1.222E1 6.184E4/
    PLOG/1.0E2 9.54E195 -5.227E1 1.635E5/
C2H3OO=CHCHO+OH    5.89E36 -7.1 5.144E4
    DUP
    PLOG/1.0E-2 1.17E56 -1.481E1 6.07E4/
    PLOG/1.0E-1 2.32E40 -9.39E0 5.042E4/
    PLOG/3.16E-1 1.61E43 -9.99E0 5.029E4/
    PLOG/1.0E0 2.33E124 -3.677E1 7.01E4/
    PLOG/3.16E0 1.88E103 -2.949E1 6.541E4/
    PLOG/1.0E1 5.96E86 -2.381E1 6.217E4/
    PLOG/3.16E1 1.51E57 -1.394E1 5.539E4/
    PLOG/1.0E2 1.79E34 -6.4E0 5.0E4/
C2H3OO=CH2CHO+O    1.22E29 -4.71 4.234E4
    DUP
    PLOG/1.0E-2 2.7E180 -4.819E1 1.693E5/
    PLOG/1.0E-1 3.9E38 -8.69E0 4.277E4/
    PLOG/3.16E-1 4.57E47 -1.121E1 4.705E4/
    PLOG/1.0E0 7.62E81 -2.128E1 6.508E4/
    PLOG/3.16E0 1.86E68 -1.683E1 6.068E4/
    PLOG/1.0E1 2.02E55 -1.269E1 5.584E4/
    PLOG/3.16E1 1.11E53 -1.179E1 5.669E4/
    PLOG/1.0E2 4.3E48 -1.031E1 5.609E4/
C2H3OO=CH2CHO+O    1.22E29 -4.71 4.234E4
    DUP
    PLOG/1.0E-2 1.47E30 -6.64E0 4.111E4/
    PLOG/1.0E-1 9.65E-12 5.96E0 2.289E4/
    PLOG/3.16E-1 3.95E22 -3.71E0 3.627E4/
    PLOG/1.0E0 2.39E33 -6.62E0 4.128E4/
    PLOG/3.16E0 6.37E31 -5.96E0 4.126E4/
    PLOG/1.0E1 2.13E29 -5.1E0 4.071E4/
    PLOG/3.16E1 4.66E27 -4.5E0 4.053E4/
    PLOG/1.0E2 5.99E25 -3.85E0 4.012E4/
C2H3OO=CHOCHO+H    4.72E20 -2.69 3.232E4
    DUP
    PLOG/1.0E-2 6.41E80 -2.22E1 5.175E4/
    PLOG/1.0E-1 3.31E65 -1.701E1 4.809E4/
    PLOG/3.16E-1 5.98E51 -1.262E1 4.3E4/
    PLOG/1.0E0 1.48E44 -1.012E1 4.079E4/
    PLOG/3.16E0 1.26E59 -1.433E1 5.139E4/
    PLOG/1.0E1 4.93E26 -4.67E0 3.432E4/
    PLOG/3.16E1 2.06E33 -6.38E0 3.952E4/
    PLOG/1.0E2 1.3E32 -5.92E0 4.066E4/
C2H3OO=CHOCHO+H    4.72E20 -2.69 3.232E4
    DUP
    PLOG/1.0E-2 1.19E28 -6.01E0 2.874E4/
    PLOG/1.0E-1 1.4E25 -4.8E0 2.894E4/
    PLOG/3.16E-1 2.91E20 -3.29E0 2.755E4/
    PLOG/1.0E0 1.58E19 -2.82E0 2.762E4/
    PLOG/3.16E0 1.93E22 -3.54E0 2.998E4/
    PLOG/1.0E1 7.51E29 -5.75E0 3.449E4/
    PLOG/3.16E1 7.14E61 -1.616E1 4.328E4/
    PLOG/1.0E2 1.14E19 -2.56E0 2.967E4/
C2H3OO=CH2CO+OH    1.55E24 -3.87 4.985E4
    DUP
    PLOG/1.0E-2 1.15E47 -1.228E1 7.533E4/
    PLOG/1.0E-1 8.43E9 -2.06E0 3.372E4/
    PLOG/3.16E-1 6.06E4 1.7E-1 3.422E4/
    PLOG/1.0E0 1.51E19 -3.61E0 4.306E4/
    PLOG/3.16E0 2.13E33 -7.39E0 5.161E4/
    PLOG/1.0E1 4.44E36 -7.99E0 5.468E4/
    PLOG/3.16E1 1.19E37 -7.8E0 5.646E4/
    PLOG/1.0E2 9.08E35 -7.21E0 5.755E4/
C2H3OO=CH2CO+OH    1.55E24 -3.87 4.985E4
    DUP
    PLOG/1.0E-2 2.31E2 -7.3E-1 2.571E4/
    PLOG/1.0E-1 1.83E-23 7.84E0 2.019E4/
    PLOG/3.16E-1 3.82E63 -2.044E1 4.342E4/
    PLOG/1.0E0 3.18E27 -7.76E0 3.723E4/
    PLOG/3.16E0 2.32E-5 3.47E0 3.156E4/
    PLOG/1.0E1 1.06E-1 2.64E0 3.416E4/
    PLOG/3.16E1 5.62E2 1.7E0 3.645E4/
    PLOG/1.0E2 1.11E7 5.2E-1 3.867E4/
C2H3OO=CH2O+HCO    1.19E20 -2.29 3.017E4
    DUP
    PLOG/1.0E-2 1.66E174 -5.552E1 6.032E4/
    PLOG/1.0E-1 9.03E66 -1.725E1 4.812E4/
    PLOG/3.16E-1 1.82E43 -9.87E0 3.796E4/
    PLOG/1.0E0 8.64E33 -6.88E0 3.437E4/
    PLOG/3.16E0 7.29E171 -4.353E1 1.919E5/
    PLOG/1.0E1 1.03E32 -6.06E0 3.55E4/
    PLOG/3.16E1 1.85E34 -6.57E0 3.851E4/
    PLOG/1.0E2 5.7E29 -5.19E0 3.68E4/
C2H3OO=CH2O+HCO    1.19E20 -2.29 3.017E4
    DUP
    PLOG/1.0E-2 2.27E35 -7.97E0 3.128E4/
    PLOG/1.0E-1 2.08E26 -4.96E0 2.878E4/
    PLOG/3.16E-1 1.45E20 -3.08E0 2.663E4/
    PLOG/1.0E0 1.06E130 -3.938E1 5.47E4/
    PLOG/3.16E0 2.35E34 -6.87E0 3.57E4/
    PLOG/1.0E1 2.18E175 -5.378E1 6.85E4/
    PLOG/3.16E1 1.07E185 -5.422E1 8.899E4/
    PLOG/1.0E2 4.68E2 1.81E0 1.81E4/
C2H3OO=>CH2O+H+CO    1.19E20 -2.29 3.017E4
    DUP
    PLOG/1.0E-2 3.88E174 -5.552E1 6.032E4/
    PLOG/1.0E-1 2.11E67 -1.725E1 4.812E4/
    PLOG/3.16E-1 4.26E43 -9.87E0 3.796E4/
    PLOG/1.0E0 2.02E34 -6.88E0 3.437E4/
    PLOG/3.16E0 1.7E172 -4.353E1 1.919E5/
    PLOG/1.0E1 2.4E32 -6.06E0 3.55E4/
    PLOG/3.16E1 4.32E34 -6.57E0 3.851E4/
    PLOG/1.0E2 1.33E30 -5.19E0 3.68E4/
C2H3OO=>CH2O+H+CO    1.19E20 -2.29 3.017E4
    DUP
    PLOG/1.0E-2 5.29E35 -7.97E0 3.128E4/
    PLOG/1.0E-1 4.85E26 -4.96E0 2.878E4/