THERMO ALL

  300.000  1000.000  5000.000

!NAPH

!NAPH-

!NAPHV

!NAPHO

!*******************************************************Sulfur Chemistry****************************************************!

!Mechanism and thermochemistry are from C.R. Mulvihill et al., Proceedings of the Combustion Institute 37 (2019) 735-742.

!Transport is from D. Bongartz et al., Combustion and Flame 162 (2015) 544-553.

!

!

!*******************************************************Nitrogen Chemistry****************************************************!

!Mechanism and thermochemistry are from:

!F. Deng et al., Fuel 181 (2016) 188-198.

!Y. Zhang et al., Combustion and Flame 182 (2017) 122-141.

!Transport is from:

!Y. Zhang et al., Combustion and Flame 182 (2017) 122-141.

!P. Glarborg et al., Progress in Energy and Combustion Science 67 (2018) 31-68.

!++++++++++++++++++++++++++++++++++++++++++++++++++++++++++++++++++++++++++++++++++++++++++++++++++++++++++++++++++++++++++++++++++++++++++++++++++++++++++++++

!----------------------------------------------------------------------------------------------------------------------------------

!\SUBMECH: CO/H2/NOx

! Y. Zhang, O. mATHIEU, E. Petersen, G. Bourque, H.J. Curran

! Assessing the prediction of a NOx kientic mechanism on recent hydrogen and syngas experimental data

! Combust. Flame. (2017) 182: 122-141.

!----------------------------------------------------------------------------------------------------------------------------------

!++++++++++++++++++++++++++++++++++++++++++++++++++++++++++++++++++++++++++++++++++++++++++++++++++++++++++++++++++++++++++++++++++++++++++++++++++++++++++++++

!\SPECIES_MODULE: \CHEMISTRIES OF NOX AND SOX

!\MODCOMMENTS:

!\MODWARNINGS:

!\MODSUBMECHS: \CORE_TO_AROMATIC_LINKERS \ \ \

!++++++++++++++++++++++++++++++++++++++++++++++++++++++++++++++++++++++++++++++++++++++++++++++++++++++++++++++++++++++++++++++++++++++++++++++++++++++++++++++

!++++++++++++++++++++++++++++++++++++++++++++++++++++++++++++++++++++++++++++++++++++++++++++++++++++++++++++++++++++++++++++++++++++++++++++++++++++++++++++++

!\END_SPECIES_MODULE: \CHEMISTRIES OF NOX

!++++++++++++++++++++++++++++++++++++++++++++++++++++++++++++++++++++++++++++++++++++++++++++++++++++++++++++++++++++++++++++++++++++++++++++++++++++++++++++++

! From  C.L. Rasmussen

!

!

! *** nitro-compounds ***

!

!atm C2H3NO2 CHCHNO2 CHOCH2NO2

!

! *** nitroso-compounds ***

!

!

! *** hydrocarbon/amine-compounds ***

!

!

! ! From  C.L. Rasmussen End

!CH2CHO+O2

!!!!!!!!!!!!!!!!!!!!!!!!!!

!*******************************************************PAH Chemistry****************************************************!

!Mechanism thermochemistry and transport are from P. Liu et al., Combustion and Flame 209 (2019) 441-451.

!A5-A7 part is from S. Park et al., Combustion and Flame 178 (2017) 46-60.

! A1-A2 reaction system

! A2-A3 reaction system

! A3-A4 reaction system

! C4H4 addition reaction

! CH3 addition

! oxy PAH

!*******************************************************Pentane Chemistry****************************************************!

!Mechanism and thermochemistry are from J. Bugler et al., Combustion and Flame 163 (2016) 138-156.

!*******************************************************Hexane Chemistry****************************************************!

!Mechanism and thermochemistry are from K. Zhang et al., Combustion and Flame 206 (2019) 123-137.

!*******************************************************n-Heptane Chemistry****************************************************!

!Mechanism and thermochemistry are from K. Zhang et al., Combustion and Flame 172 (2016) 116-135.

!++++++++++++++++++++++++++++++++++++++++++++++++++++++++++++++++++++++++++++++++++++++++++++++++++++++++++++++++++++++++++++++++++++++++++++++++++++++++++++++

!\SPECIES_MODULE: \C7

!\MODSUBMECHS: \NC7H16 \C7H14-1\C7H14-2\C7H14-3  \H15DE25DM

!++++++++++++++++++++++++++++++++++++++++++++++++++++++++++++++++++++++++++++++++++++++++++++++++++++++++++++++++++++++++++++++++++++++++++++++++++++++++++++++

!------------------------------------------------------------------------------

!\SUBMECH: \NC7H16

!------------------------------------------------------------------------------

!\PYROSPEC:

!\OXIDSPEC:

!------------------------------------------------------------------------------

!------------------------------------------------------------------------------

!\SUBMECH: \C7H14-1\C7H14-2\C7H14-3

!------------------------------------------------------------------------------

!\PYROSPEC:

!\OXIDSPEC:

!------------------------------------------------------------------------------

!++++++++++++++++++++++++++++++++++++++++++++++++++++++++++++++++++++++++++++++++++++++++++++++++++++++++++++++++++++++++++++++++++++++++++++++++++++++++++++++

!\END_SPECIES_MODULE: \C7

!++++++++++++++++++++++++++++++++++++++++++++++++++++++++++++++++++++++++++++++++++++++++++++++++++++++++++++++++++++++++++++++++++++++++++++++++++++++++++++++

!*******************************************************iso-Octane Chemistry****************************************************!

!Mechanism and thermochemistry are from N. Atef et al., Combustion and Flame 178 (2017) 111-134.

! DIISOBUTYLENE SPECIES:

!JC8H16   IC8H16

AR                G-5-97AR  1               G     200.0    6000.0  1000.0      1

          2.5E0          0.0E0          0.0E0          0.0E0          0.0E0    2

     -7.45375E2   4.37967491E0          2.5E0          0.0E0          0.0E0    3

          0.0E0          0.0E0     -7.45375E2   4.37967491E0                   4

N2                G-8-02N   2               G     200.0    6000.0  1000.0      1

   2.95257637E0   1.3969004E-3 -4.92631603E-7 7.86010195E-11-4.60755204E-15    2

  -9.23948688E2   5.87188762E0   3.53100528E0 -1.23660988E-4 -5.02999433E-7    3

  2.43530612E-9-1.40881235E-12  -1.04697628E3   2.96747038E0                   4

HE                G-5-97HE  1               G     200.0    6000.0  1000.0      1

          2.5E0          0.0E0          0.0E0          0.0E0          0.0E0    2

     -7.45375E2  9.28723974E-1          2.5E0          0.0E0          0.0E0    3

          0.0E0          0.0E0     -7.45375E2  9.28723974E-1                   4

H2                TPIS78H   2               G     200.0    6000.0  1000.0      1

   2.93286575E0  8.26608026E-4 -1.46402364E-7 1.54100414E-11  -6.888048E-16    2

  -8.13065581E2  -1.02432865E0   2.34433112E0  7.98052075E-3  -1.9478151E-5    3

  2.01572094E-8-7.37611761E-12  -9.17935173E2  6.83010238E-1                   4

H                 L-6-94H   1               G     200.0    6000.0  1000.0      1

          2.5E0          0.0E0          0.0E0          0.0E0          0.0E0    2

     2.547366E4  -4.4668285E-1          2.5E0          0.0E0          0.0E0    3

          0.0E0          0.0E0     2.547366E4  -4.4668285E-1                   4

O2                RUS-89O   2               G     200.0    6000.0  1000.0      1

   3.66096065E0  6.56365811E-4 -1.41149627E-7 2.05797935E-11-1.29913436E-15    2

  -1.21597718E3   3.41536279E0   3.78245636E0 -2.99673416E-3  9.84730201E-6    3

 -9.68129509E-9 3.24372837E-12  -1.06394356E3   3.65767573E0                   4

O                 L-1-90O   1               G     200.0    6000.0  1000.0      1

   2.54363697E0 -2.73162486E-5  -4.1902952E-9 4.95481845E-12-4.79553694E-16    2

    2.9226012E4   4.92229457E0    3.1682671E0 -3.27931884E-3  6.64306396E-6    3

 -6.12806624E-9 2.11265971E-12   2.91222592E4   2.05193346E0                   4

H2O               L-5-89H   2O   1          G     200.0    6000.0  1000.0      1

    2.6770389E0   2.9731816E-3  -7.7376889E-7  9.4433514E-11 -4.2689991E-15    2

   -2.9885894E4      6.88255E0    4.1986352E0  -2.0364017E-3   6.5203416E-6    3

  -5.4879269E-9   1.771968E-12   -3.0293726E4  -8.4900901E-1                   4

OH                IU3-03H   1O   1          G     200.0    6000.0  1000.0      1

   2.83853033E0  1.10741289E-3 -2.94000209E-7 4.20698729E-11 -2.4228989E-15    2

   3.69780808E3   5.84494652E0   3.99198424E0 -2.40106655E-3  4.61664033E-6    3

 -3.87916306E-9 1.36319502E-12   3.36889836E3 -1.03998477E-1                   4

H2O2              T-8-03H   2O   2          G     200.0    6000.0  1000.0      1

   4.57977305E0  4.05326003E-3  -1.2984473E-6   1.982114E-10-1.13968792E-14    2

  -1.80071775E4  6.64970694E-1   4.31515149E0 -8.47390622E-4  1.76404323E-5    3

 -2.26762944E-8 9.08950158E-12  -1.77067437E4   3.27373319E0                   4

HO2               T-1-09H   1O   2          G     200.0    5000.0  1000.0      1

   4.17228741E0  1.88117627E-3 -3.46277286E-7 1.94657549E-11 1.76256905E-16    2

   3.10206839E1   2.95767672E0   4.30179807E0 -4.74912097E-3  2.11582905E-5    3

 -2.42763914E-8 9.29225225E-12   2.64018485E2    3.7166622E0                   4

CO                RUS-79O   1C   1          G     200.0    6000.0  1000.0      1

    3.0484859E0   1.3517281E-3  -4.8579405E-7  7.8853644E-11 -4.6980746E-15    2

   -1.4266117E4    6.0170977E0    3.5795335E0  -6.1035369E-4   1.0168143E-6    3

  9.0700586E-10 -9.0442449E-13   -1.4344086E4    3.5084093E0                   4

CO2               L-7-88O   2C   1          G     200.0    6000.0  1000.0      1

    4.6365111E0   2.7414569E-3  -9.9589759E-7  1.6038666E-10 -9.1619857E-15    2

   -4.9024904E4   -1.9348955E0     2.356813E0   8.9841299E-3  -7.1220632E-6    3

   2.4573008E-9 -1.4288548E-13   -4.8371971E4    9.9009035E0                   4

CH4               G-8-99H   4C   1          G     200.0    6000.0  1000.0      1

   1.65326226E0  1.00263099E-2 -3.31661238E-6 5.36483138E-10-3.14696758E-14    2

  -1.00095936E4   9.90506283E0   5.14911468E0 -1.36622009E-2  4.91453921E-5    3

 -4.84246767E-8 1.66603441E-11  -1.02465983E4  -4.63848842E0                   4

CH3               IU0702H   3C   1          G     200.0    6000.0  1000.0      1

    2.9781206E0    5.797852E-3    -1.97558E-6   3.072979E-10 -1.7917416E-14    2

    1.6509513E4    4.7224799E0    3.6571797E0   2.1265979E-3   5.4583883E-6    3

  -6.6181003E-9  2.4657074E-12    1.6422716E4    1.6735354E0                   4

CH2               IU3-03H   2C   1          G     200.0    6000.0  1000.0      1

   3.14631886E0  3.03671259E-3 -9.96474439E-7  1.5048358E-10-8.57335515E-15    2

   4.60412605E4   4.72341711E0   3.71757846E0   1.2739126E-3  2.17347251E-6    3

   -3.488585E-9 1.65208866E-12   4.58723866E4   1.75297945E0                   4

CH2(S)            IU6-03H   2C   1          G     200.0    6000.0  1000.0      1

   3.13501686E0  2.89593926E-3  -8.1666809E-7 1.13572697E-10-6.36262835E-15    2

   5.05040504E4   4.06030621E0   4.19331325E0 -2.33105184E-3  8.15676451E-6    3

 -6.62985981E-9 1.93233199E-12   5.03662246E4  -7.4673431E-1                   4

CH                IU3-03H   1C   1          G     200.0    6000.0  1000.0      1

    2.5209369E0   1.7653639E-3   -4.614766E-7  5.9289675E-11 -3.3474501E-15    2

    7.0946769E4    7.4051829E0    3.4897583E0    3.243216E-4  -1.6899751E-6    3

    3.162842E-9 -1.4061803E-12    7.0612646E4    2.0842841E0                   4

CH3OH             T06-02H   4O   1C   1     G     200.0    6000.0  1000.0      1

   3.52726795E0  1.03178783E-2 -3.62892944E-6 5.77448016E-10-3.42182632E-14    2

  -2.60028834E4   5.16758693E0   5.65851051E0 -1.62983419E-2  6.91938156E-5    3

 -7.58372926E-8  2.8042755E-11  -2.56119736E4 -8.97330508E-1                   4

CH3O              IU1-03H   3O   1C   1     G     200.0    6000.0  1000.0      1

   4.75779238E0  7.44142474E-3 -2.69705176E-6 4.38090504E-10-2.63537098E-14    2

    3.7811194E2  -1.96680028E0   3.71180502E0 -2.80463306E-3  3.76550971E-5    3

 -4.73072089E-8  1.8658842E-11    1.2956976E3   6.57240864E0                   4

CH2OH             IU2-03H   3O   1C   1     G     200.0    6000.0  1000.0      1

    5.0931437E0   5.9476126E-3  -2.0649746E-6 3.23008173E-10-1.88125902E-14    2

   -4.0340964E3  -1.84691493E0   4.47834367E0  -1.3507031E-3   2.7848498E-5    3

  -3.6486906E-8  1.4790745E-11   -3.5007289E3     3.309135E0                   4

CH2O              T-5-11H   2O   1C   1     G     200.0    6000.0  1000.0      1

   3.16952665E0   6.1932056E-3 -2.25056366E-6  3.6597566E-10-2.20149458E-14    2

  -1.45486831E4   6.04207898E0   4.79372312E0 -9.90833322E-3   3.7321999E-5    3

 -3.79285237E-8 1.31772641E-11  -1.43791953E4  6.02798058E-1                   4

HCO               T-5-03H   1O   1C   1     G     200.0    6000.0  1000.0      1

   3.92001542E0  2.52279324E-3 -6.71004164E-7 1.05615948E-10-7.43798261E-15    2

   3.65342928E3   3.58077056E0    4.2375461E0 -3.32075257E-3  1.40030264E-5    3

 -1.34239995E-8 4.37416208E-12   3.87241185E3   3.30834869E0                   4

HOCHO             L-8-88H   2O   2C   1     G     200.0    6000.0  1000.0      1

    4.6138316E0   6.4496364E-3  -2.2908251E-6  3.6716047E-10 -2.1873675E-14    2

    -4.751485E4   8.4788383E-1    3.8983616E0  -3.5587795E-3   3.5520538E-5    3

  -4.3849959E-8  1.7107769E-11   -4.6770609E4    7.3495397E0                   4

C2H6              G-8-88H   6C   2          G     200.0    6000.0  1000.0      1

   4.04666411E0  1.53538802E-2 -5.47039485E-6 8.77826544E-10-5.23167531E-14    2

  -1.24473499E4 -9.68698313E-1   4.29142572E0 -5.50154901E-3  5.99438458E-5    3

 -7.08466469E-8 2.68685836E-11  -1.15222056E4   2.66678994E0                   4

C2H5              -THERMH   5C   2          G     300.0    5000.0  1387.0      1

    5.8878439E0  1.03076793E-2 -3.46844396E-6 5.32499257E-10-3.06512651E-14    2

   1.15065499E4  -8.49651771E0   1.32730217E0  1.76656753E-2 -6.14926558E-6    3

-3.01143466E-10 4.38617775E-13   1.34284028E4   1.71789216E1                   4

C2H4                    H   4C   2          G     300.0    5000.0  1392.0      1

   5.07061289E0  9.11140768E-3 -3.10506692E-6 4.80733851E-10-2.78321396E-14    2

   3.66391217E3  -6.64501414E0  4.81118223E-1   1.8377806E-2 -9.99633565E-6    3

  2.73211039E-9-3.01837289E-13   5.44386648E3   1.85867157E1                   4

C2H3                    H   3C   2          G     300.0    5000.0  1400.0      1

   4.99675415E0  6.55838271E-3 -2.20921909E-6 3.39300272E-10-1.95316926E-14    2

   3.34604382E4  -3.01451097E0   1.25545094E0  1.57481597E-2 -1.12218328E-5    3

  4.50915682E-9-7.74861577E-13   3.47435574E4   1.69664043E1                   4

CHOCHO                  H   2O   2C   2     G     300.0    5000.0  1386.0      1

   9.75438561E0  4.97645947E-3 -1.74410483E-6 2.75586994E-10-1.61969892E-14    2

  -2.95832896E4  -2.61878329E1    1.8810512E0  2.36386368E-2 -1.83443295E-5    3

  6.84842963E-9-9.92733674E-13   -2.6928019E4   1.59154793E1                   4

C2H3OO                  H   3O   2C   2     G    298.15    2000.0  1000.0      1

   6.04483828E0  1.45511127E-2 -7.50974622E-6   1.8348828E-9-1.66689681E-13    2

   1.01699244E4  -3.71144913E0   1.09784776E0  2.95333237E-2  -2.2774436E-5    3

  7.20559155E-9-3.07929092E-13   1.13996101E4   2.13563583E1                   4

CHCHO                   H   2O   1C   2     G    298.15    2000.0  1000.0      1

    4.9263291E0  9.71712147E-3  -5.5485598E-6  1.53068537E-9-1.64742462E-13    2

   2.89499494E4  5.27874677E-1   2.33256751E0  1.62952986E-2 -9.72052177E-6    3

 5.15124155E-10 1.03836514E-12   2.96585452E4   1.39904923E1                   4

C2H2              G-1-91H   2C   2          G     200.0    6000.0  1000.0      1

   4.65878489E0  4.88396667E-3 -1.60828888E-6 2.46974544E-10-1.38605959E-14    2

   2.57594042E4  -3.99838194E0  8.08679682E-1  2.33615762E-2 -3.55172234E-5    3

  2.80152958E-8-8.50075165E-12   2.64289808E4   1.39396761E1                   4

C2H               T-5-10H   1C   2          G     200.0    6000.0  1000.0      1

   3.66270248E0  3.82492252E-3   -1.366325E-6  2.1345504E-10-1.23216848E-14    2

    6.7168379E4   3.92205792E0   2.89867676E0  1.32988489E-2 -2.80733327E-5    3

  2.89484755E-8-1.07502351E-11    6.7061605E4   6.18547632E0                   4

H2CC              L12-89H   2C   2          G     200.0    6000.0  1000.0      1

     4.278034E0   4.7562804E-3  -1.6301009E-6  2.5462806E-10 -1.4886379E-14    2

    4.8316688E4   6.4023701E-1    3.2815483E0   6.9764791E-3  -2.3855244E-6    3

  -1.2104432E-9  9.8189545E-13    4.8621794E4     5.920391E0                   4

PC2H4OH                 H   5O   1C   2     G     300.0    5000.0  1395.0      1

    8.0675015E0  1.06143554E-2  -3.5799936E-6  5.5036376E-10-3.17051769E-14    2

  -6.92747939E3  -1.53833428E1   2.59479867E0  2.27100669E-2 -1.39473846E-5    3

  4.70095591E-9-6.90044236E-13  -4.91486975E3   1.43240718E1                   4

C2H4O1-2          L-8-88H   4O   1C   2     G     200.0    6000.0  1000.0      1

    5.4887641E0    1.204619E-2  -4.3336931E-6  7.0028311E-10 -4.1949088E-14    2

   -9.1804251E3   -7.0799605E0    3.7590532E0   -9.441218E-3   8.0309721E-5    3

  -1.0080788E-7  4.0039921E-11   -7.5608143E3    7.8497475E0                   4

C2H3O1-2          A-1-05H   3O   1C   2     G     200.0    6000.0  1000.0      1

   5.60158035E0  9.17613962E-3 -3.28028902E-6 5.27903888E-10-3.15362241E-14    2

   1.71446252E4  -5.47228512E0   3.58349017E0 -6.02275805E-3  6.32426867E-5    3

 -8.18540707E-8 3.30444505E-11   1.85681353E4   9.59725926E0                   4

CH3CHO            L-8-88H   4O   1C   2     G     200.0    6000.0  1000.0      1

    5.4041108E0   1.1723059E-2  -4.2263137E-6  6.8372451E-10 -4.0984863E-14    2

   -2.2593122E4   -3.4807917E0    4.7294595E0  -3.1932858E-3   4.7534921E-5    3

  -5.7458611E-8  2.1931112E-11   -2.1572878E4    4.1030159E0                   4

CH3CO             IU2-03H   3O   1C   2     G     200.0    6000.0  1000.0      1

    5.3137165E0   9.1737793E-3  -3.3220386E-6  5.3947456E-10 -3.2452368E-14    2

   -3.6450414E3   -1.6757558E0    4.0358705E0   8.7729487E-4    3.071001E-5    3

  -3.9247565E-8  1.5296869E-11   -2.6820738E3    7.8617682E0                   4

CH2CHO            T03-10H   3O   1C   2     G     200.0    6000.0  1000.0      1

   6.53928338E0  7.80238629E-3 -2.76413612E-6 4.42098906E-10 -2.6295429E-14    2

  -1.18858659E3  -8.72091393E0     2.795026E0  1.01099472E-2  1.61750645E-5    3

 -3.10303145E-8 1.39436139E-11   1.62944975E2   1.23646657E1                   4

C2H3OH            -THERMH   4O   1C   2     G     300.0    5000.0  1410.0      1

   8.32598158E0  8.03387281E-3 -2.63928405E-6 3.98410726E-10-2.26551155E-14    2

  -1.83221436E4  -2.02080305E1  -1.2797226E-1  3.38506073E-2 -3.30644935E-5    3

  1.64858739E-8-3.19935455E-12  -1.59914544E4   2.30438601E1                   4

CH2CO                   H   2O   1C   2     G     300.0    5000.0  1000.0      1

   5.35869367E0  6.95641586E-3 -2.64802637E-6 4.65067592E-10 -3.0864182E-14    2

  -7.90294013E3  -3.98525731E0   1.81422511E0   1.9900859E-2 -2.21416008E-5    3

  1.45028521E-8-3.98877068E-12  -7.05394926E3   1.36079359E1                   4

HCCO              T-4-09H   1O   1C   2     G     200.0    6000.0  1000.0      1

   5.91479333E0   3.7140873E-3  -1.3013701E-6 2.06473345E-10-1.21476759E-14    2

   1.93596301E4  -5.50567269E0   1.87607969E0  2.21205418E-2 -3.58869325E-5    3

  3.05402541E-8-1.01281069E-11    2.0163384E4    1.3696829E1                   4

C3H8                    H   8C   3          G     300.0    5000.0  1390.0      1

    9.1554131E0  1.72574139E-2 -5.85614868E-6 9.04190155E-10-5.22523772E-14    2

  -1.75762439E4   -2.7741851E1   2.4087847E-1  3.39548599E-2 -1.60930874E-5    3

  2.83480628E-9 2.78195172E-14  -1.40362853E4     2.165008E1                   4

IC3H7                   H   7C   3          G     298.0    6000.0  1000.0      1

   6.70775549E0  1.74048076E-2 -6.07615926E-6 9.60084351E-10 -5.6565649E-14    2

   7.55377821E3  -1.03686516E1 -8.97467137E-1  4.15744022E-2 -4.94778349E-5    3

  4.56493655E-8-1.79085437E-11   9.93950407E3   2.92641758E1                   4

NC3H7                   H   7C   3          G     298.0    6000.0  1000.0      1

   7.48614243E0  1.65769478E-2 -5.74876481E-6 9.04103694E-10-5.30867231E-14    2

   8.93710008E3  -1.42595379E1  -2.20120865E0  5.29641653E-2 -7.23640506E-5    3

   6.3699694E-8-2.29332581E-11   1.15130744E4   3.43669174E1                   4

C3H6                    H   6C   3          G     298.0    6000.0  1000.0      1

   6.59032304E0  1.52592866E-2 -5.30369441E-6 8.35510888E-10-4.91215549E-14    2

  -2.47481113E2  -1.15748238E1  -1.54606737E0  4.36553128E-2 -5.61392417E-5    3

  4.98421927E-8-1.84798923E-11   2.07056233E3   2.99232495E1                   4

C3H5-A                  H   5C   3          G     298.0    6000.0  1000.0      1

   7.37604097E0  1.23449782E-2 -4.26463882E-6 6.69045835E-10-3.92202554E-14    2

    1.7733296E4  -1.61758204E1  -3.32899442E0  5.38423469E-2 -7.65500752E-5    3

  6.35512285E-8-2.14283003E-11   2.03420628E4   3.68038362E1                   4

C3H4-P            T-2-90H   4C   3          G     200.0    6000.0  1000.0      1

      6.02524E0   1.1336542E-2  -4.0223391E-6  6.4376063E-10 -3.8299635E-14    2

    1.9620942E4   -8.6043785E0    2.6803869E0   1.5799651E-2   2.5070596E-6    3

  -1.3657623E-8  6.6154285E-12    2.0802374E4    9.8769351E0                   4

C3H4-A            L-8-89H   4C   3          G     200.0    6000.0  1000.0      1

    6.3168722E0   1.1133728E-2  -3.9629378E-6  6.3564238E-10  -3.787554E-14    2

    2.0117495E4   -1.0995766E1    2.6130445E0   1.2122575E-2    1.853988E-5    3

  -3.4525149E-8  1.5335079E-11    2.1541567E4    1.0226139E1                   4

C3H3              T-7-11H   3C   3          G     200.0    6000.0  1000.0      1

   7.14221719E0  7.61902211E-3  -2.6746003E-6 4.24914904E-10-2.51475443E-14    2

   3.95709594E4   -1.2584869E1   1.35110873E0  3.27411291E-2 -4.73827407E-5    3

   3.7631022E-8-1.18541128E-11   4.07679941E4   1.52058598E1                   4

SC3H4OH                 H   5O   1C   3     G     300.0    5000.0  1407.0      1

   1.20968484E1  9.43976596E-3 -3.10773897E-6 4.69609188E-10 -2.6716571E-14    2

  -3.85854894E2  -3.76795997E1   1.72870561E0   4.4101587E-2  -4.7201386E-5    3

  2.52073596E-8 -5.1337571E-12   2.22720503E3   1.43928257E1                   4

C2H3CO            -KPS12H   3O   1C   3     G     300.0    5000.0  1395.0      1

   8.86032735E0  8.48985205E-3  -2.9035008E-6 4.50763986E-10-2.61524281E-14    2

   7.73489171E3  -2.06978792E1   1.65335195E0  2.57402596E-2 -1.89009911E-5    3

  7.29174972E-9-1.16083226E-12   1.02020654E4   1.78705872E1                   4

!CWZ ADDED FROM YL CALCULATION

C4H71-3                 H   7C   4          G    298.15    2000.0  1000.0      1

   4.46811308E0  2.74302155E-2 -1.21179861E-5  2.27424125E-9-1.08909321E-13    2

     1.320203E4   2.39088817E0  2.79155108E-1  3.80223852E-2 -1.87607474E-5    3

 5.39086588E-10 1.86579489E-12   1.43480047E4   2.41411045E1                   4

!CWZ ADDED

C4H72-2                 H   7C   4          G    298.15    2000.0  1000.0      1

   4.37426341E0   2.5736305E-2 -1.00546557E-5   1.2763984E-9 6.13336241E-14    2

   2.40972649E4    4.6388208E0   3.87261475E0  1.94663362E-2  1.17651426E-5    3

 -2.15466972E-8 7.83624839E-12   2.46114228E4   9.12812646E0                   4

!CWZ ADDED FROM YL CALCULATION

C4H6                    H   6C   4          G    298.15    2000.0  1000.0      1

   6.48731037E0   2.2020954E-2 -9.83379092E-6  1.91675967E-9 -1.0642771E-13    2

    1.0159666E4  -1.06711837E1  -3.37272121E0  5.76700106E-2 -5.76207712E-5    3

  2.99836767E-8-6.17538953E-12   1.23212258E4   3.78455365E1                   4

C4H5-I                  H   5C   4          G     298.0    3000.0  1000.0      1

   5.25595308E0  2.19965949E-2 -1.09137173E-5  2.63404317E-9-2.50557472E-13    2

   3.57055213E4   -1.5638629E0 -4.20623364E-1  4.38861302E-2 -4.32708486E-5    3

  2.43849315E-8-5.85727339E-12   3.69066616E4   2.60889512E1                   4

C4H5-N                  H   5C   4          G     298.0    3000.0  1000.0      1

   7.29521441E0  1.91513156E-2 -9.57154022E-6  2.33661465E-9-2.25148097E-13    2

   4.01314083E4  -1.35255263E1  -3.18360247E0  5.81813715E-2 -6.38641527E-5    3

  3.57450182E-8-7.89217819E-12   4.23740398E4   3.77564497E1                   4

C4H5-2            H6W-94H   5C   4          G     300.0    5000.0  1385.0      1

   1.03230828E1  1.17625574E-2 -4.00004665E-6 6.18727929E-10 -3.5808353E-14    2

   3.25861413E4  -2.88794317E1   2.31011292E0  2.83747046E-2 -1.63836755E-5    3

  4.46251967E-9-4.30510879E-13   3.55842945E4   1.49105965E1                   4

C4H4              H6W-94H   4C   4          G     300.0    3000.0  1000.0      1

    6.6507092E0   1.6129434E-2  -7.1938875E-6   1.4981787E-9  -1.186411E-13    2

    3.1195992E4   -9.7952118E0   -1.9152479E0   5.2750878E-2  -7.1655944E-5    3

   5.5072423E-8 -1.7286228E-11    3.2978504E4    3.1419983E1                   4

C4H3-I            AB1-93H   3C   4          G     300.0    3000.0  1000.0      1

    9.0978165E0   9.2207119E-3  -3.3878441E-6  4.9160498E-10  -1.452978E-14    2

    5.6600574E4   -1.9802597E1    2.0830412E0   4.0834274E-2  -6.2159685E-5    3

   5.1679358E-8 -1.7029184E-11    5.8005129E4    1.3617462E1                   4

C4H3-N            H6W-94H   3C   4          G     300.0    3000.0  1000.0      1

    5.4328279E0   1.6860981E-2  -9.4313109E-6   2.5703895E-9 -2.7456309E-13    2

     6.160068E4   -1.5673981E0  -3.1684113E-1     4.69121E-2   -6.809381E-5    3

   5.3179921E-8 -1.6523005E-11    6.2476199E4    2.4622559E1                   4

C4H2              D11-99H   2C   4          G     300.0    3000.0  1000.0      1

    9.1576328E0   5.5430518E-3  -1.3591604E-6  1.8780075E-11  2.3189536E-14    2

    5.2588039E4    -2.371146E1    1.0543978E0    4.162696E-2  -6.5871784E-5    3

   5.3257075E-8 -1.6683162E-11    5.4185211E4    1.4866591E1                   4

CH2CHCHCHO              H   5O   1C   4     G     300.0    5000.0  1400.0      1

   1.32551859E1  1.19066619E-2 -4.06547591E-6  6.3031261E-10-3.65301442E-14    2

   4.28822305E3  -4.47690775E1 -4.93209912E-1  5.26550104E-2 -5.15159642E-5    3

  2.57409661E-8-5.03442115E-12   8.26367547E3   2.61133171E1                   4

CYHEXEN-4J              H   9C   6          G     300.0    5000.0  1388.0      1

   1.45726981E1  2.41687737E-2 -8.34933859E-6  1.30512039E-9-7.60857953E-14    2

   1.40406544E4  -5.59995158E1  -3.84381292E0  5.99346158E-2 -3.11377445E-5    3

  5.82015177E-9 8.64222393E-14   2.11060274E4   4.53885355E1                   4

!W.GREEN'S

!W.GREEN'S

!W.GREEN'S

!W.GREEN'S

CYPENTN-4MJ             H   9C   6          G      10.0    3000.0  433.34      1

  -2.41048175E0  6.21591818E-2 -3.89684972E-5  1.17648713E-8-1.36838719E-12    2

   2.57204512E4   3.77632099E1   3.94469866E0  3.44171538E-3  1.64472094E-4    3

 -3.01509598E-7 1.79533574E-10   2.51701784E4   1.24235238E1                   4

!W.GREEN'S

!W.GREEN'S

!W.GREEN'S

!W.GREEN'S

CYPENTN-4M4J            H   9C   6          G      10.0    3000.0  528.91      1

  -3.37191907E0  6.18953322E-2 -3.77368199E-5   1.1013891E-8-1.23709218E-12    2

   2.17495406E4   4.18567684E1   4.00036055E0 -6.25727801E-4  1.58764283E-4    3

 -2.60854825E-7 1.38700145E-10    2.1064332E4   1.18801829E1                   4

!W.GREEN'S

!W.GREEN'S

!W.GREEN'S

!W.GREEN'S

CYPENTN-4M3J            H   9C   6          G      10.0    3000.0  451.07      1

  -3.01888829E0  6.53666245E-2 -4.25401593E-5  1.32583714E-8-1.58143371E-12    2

   1.74262118E4   3.99119184E1   3.94632666E0  3.28517048E-3  1.64955619E-4    3

 -2.94963183E-7 1.70105404E-10   1.68010595E4   1.18895739E1                   4

!W.GREEN'S

!W.GREEN'S

!W.GREEN'S

!W.GREEN'S

CYPENTN-4MTHNE          H   8C   6          G      10.0    3000.0  592.29      1

  -2.10239098E0   5.8136577E-2 -3.60082225E-5  1.06656333E-8-1.21248223E-12    2

   1.53559396E4   3.49539705E1   4.03826412E0 -4.04316353E-3  1.73911296E-4    3

 -2.84646912E-7 1.48353104E-10   1.49917771E4   1.16115412E1                   4

!CWZ ADDED FROM YL CALCULATION

C4H612                  H   6C   4          G    298.15    2000.0  1000.0      1

   4.03554835E0  2.50965369E-2  -1.1431852E-5  2.30461618E-9-1.42764873E-13    2

   1.69864966E4   4.60107412E0   1.26299208E0  3.21839229E-2 -1.60586721E-5    3

  1.38632371E-9 1.08751804E-12   1.77411498E4   1.89777653E1                   4

!CWZ ADDED FROM YL CALCULATION

C4H6-2                  H   6C   4          G    298.15    2000.0  1000.0      1

    3.2849331E0  2.56208578E-2 -1.13437876E-5  2.13794807E-9-1.05016221E-13    2

   1.53435097E4   7.73047992E0   2.65653419E0  2.30439838E-2  1.57227991E-7    3

 -1.06198653E-8 4.35705454E-12   1.57237129E4   1.20347588E1                   4

H2C4O             120189H   2O   1C   4     G     300.0    4000.0  1000.0      1

     1.026888E1    4.896164E-3   -4.885081E-7  -2.708566E-10   5.107013E-14    2

     2.346903E4    -2.815985E1     4.810971E0    1.313999E-2    9.865073E-7    3

    -6.12072E-9   1.640003E-12     2.545803E4     2.113424E0                   4

CC5H10                  H  10C   5          G     300.0    5000.0  1394.0      1

   1.44242929E1  2.26454984E-2 -7.73646334E-6  1.19999861E-9-6.95711276E-14    2

  -1.14981027E4  -5.30391197E1 -9.64397004E-1  5.68482691E-2 -3.66324275E-5    3

  1.23008921E-8-1.71392531E-12  -5.93502026E3   3.02998433E1                   4

!CWZ NEW THERM

C6H9-A                  H   9C   6          G     300.0    5000.0  1382.0      1

   1.70376899E1  2.05549167E-2 -6.96491767E-6  1.07546988E-9-6.21898909E-14    2

   1.95752798E4  -6.38078119E1 -7.24108264E-1  6.00319387E-2 -3.96639738E-5    3

  1.30603563E-8-1.70075722E-12   2.59153586E4   3.22514932E1                   4
