!****************************************************************************
! The mechanism mainly consist of two parts, 
!  1) USCII mechanism describing the gas-phase reaction up to benzene.(Hai Wang, Xiaoqing You, Ameya V. Joshi, Scott G. Davis, Alexander Laskin, 
!  Fokion Egolfopoulos, and Chung K. Law,  USC Mech Version II.)
!  2) The PAH chemistry starting from benzene to pyrene.(the references are marked for each reaction) 
!
!****************************************************************************
!
! Please contact Peng Liu at peng.liu.1@kaust.edu.sa for questions and comments   
!     
!***************************************************************************
!============================================================================  
ELEMENTS
O  H  C  N  AR   
END
SPECIES
!
 AR  N2 
! HE
!
 H         O         OH        HO2       H2        H2O       H2O2      O2
!
 C         CH        CH2       CH2*      CH3       CH4   
 HCO       CH2O      CH3O      CH2OH     CH3OH     CO        CO2       C2O
!
 C2H       C2H2      H2CC      C2H3      C2H4      C2H5      C2H6
 HCCO      HCCOH     CH2CO     CH3CO     CH2CHO    CH2OCH    CH3CHO    CH2OCH2 
!
 C3H3      pC3H4     aC3H4     cC3H4     aC3H5     CH3CCH2   CH3CHCH
 C3H6      nC3H7     iC3H7     C3H8       C3H2
 CH2CHCO   C2H3CHO   CH3CHOCH2 CH3CH2CHO CH3COCH3
!
 C4H2      nC4H3     iC4H3     C4H4      nC4H5     iC4H5    C4H5-2    c-C4H5
 C4H6      C4H612    C4H6-2    C4H7      iC4H7     C4H81     C4H82    iC4H8     
 pC4H9     sC4H9     iC4H9     tC4H9     C4H10     iC4H10
!
 H2C4O     C4H4O     CH2CHCHCHO          CH3CHCHCO           C2H3CHOCH2
 C4H6O23   CH3CHCHCHO                    C4H6O25
!
 C5H4O     C5H5O(1,3)  C5H5O(2,4) C5H4OH   C5H5OH   C5H5      C5H6
 lC5H7
!
 C6H2      C6H3      l-C6H4    o-C6H4    C6H5     C6H6      
!
 C6H5CH2   C6H5CH3   C6H5C2H   C6H5O     C6H5OH    C6H4O2  
 C6H5CO    C6H5CHO   C6H5CH2OH OC6H4CH3  HOC6H4CH3        
 C6H4CH3
!
!**********************Oxy-PAH from C6H5O to C12H8O study**************************************
Indenyl Indenoxy A2OH  A-naphthol B-naphthol CS31_ CS32_                     !Intermediates
A2O_1  A2O_2 CS2_ CS4_ CS6_ CS7_ CS8_ CS9_ CS10_ CS11_                       !Intermediates
CS14_ CS16_ CS19_ CS20_ CS22_ CS23_  CS26_ CS27_ CS28_ CS29_                 !Intermediates
! 
CS6-P CS8-P CS18-P CS20-P                                                    !Products
CS3_ CS5_ CS17_ CS30_ CS24_ CS33_                                            !Products
!**********************Oxy-PAH from C6H5O to C12H8O study**************************************
!
!
!**********************PAH from A1 to A2 *****************************************************  
A1C2H-A A1C2H-B A1C2H-C A1C2H2 A1C3H2 A1C6H4                                 !Intermediates  
A1C2H-9 A1C2H-15 A1C2H-16 A1C2H-17 A1C2H-18 A1C2H-7 A1C2H-4 A1C2H-5 A1C2H-6  !Intermediates
! 
A1C2H A2 Indene A1C2HC2H-A A1C2HC2H-B A1C2HC2H-C A1C4H4-A A1C4H4-B           !Products 
!**********************PAH from A1 to A2 ***************************************************** 
!
!
!**********************PAH from A2 to A3 ***************************************************** 
A2R5-  A2-1 A2-2 Anthracene-4   
N2_CS2 N2_CS4 N2_CS5 N2_CS6 N2_CS7 N2_CS8 N2_CS9 N2_CS10 N2_CS11 N2_CS12     !Intermediates
N2_CS13 N2_CS14 N2_CS15 N2_CS16 N2_CS17 N2_CS25 N2_CS26 N2_CS28 N2_CS29      !Intermediates
N2_CS31 N2_CS32 N2_CS33 N2_CS34 N2_CS36 N2_CS37 N2_CS38 N2_CS39  N2_CS41     !Intermediates
N2_CS42 N2_CS43 N1_CS2 N1_CS3 N1_CS6 N1_CS7 N1_CS8 N1_CS9 N1_CS10 N1_CS11    !Intermediates
N1_CS12 N1_CS13 N1_CS14 N1_CS15 N1_CS16 N1_CS17 N1_CS18 N1_CS19 N1_CS23      !Intermediates
N1_CS27 N1_CS28 N1_CS29 N1_CS31 N1_CS32 N1_CS33 N1_CS34 N1_CS35 N1_CS36      !Intermediates
N1_CS37                                                                                                 
A2CH3A A2CH3B A3CH3A A2CH2A A2CH2B A3CH2A                                    !Intermediates
!
A2R5 Anthracene A3 A2C2H-A A2C2H-B                                           !Products 
N2_CS40 A2R5C2H-A A2R5C2H-B N1_CS22 N1_CS26 A2C2HC2H-A A2C2HC2H-B            !Products
A2C2HC2H-C A2C2HC2H-D A2C2HC2H-E A2C2HC2H-F A2C2HC2H-G                       !Products
!**********************PAH from A2 to A3 *****************************************************
!
!
!**********************PAH from A3 to A4 *****************************************************
A3-1 A3-2 A3-3 A3-4 A3-5 A4-1 A3_P1_2 A3_P1_4 A3_P1_5 A3_P2_2 A3_P3_2        !Intermediates
A3_P4_2 A3_P4_4 A3_P4_5 A3_P5_2 A3_P5_4 A3_P5_5                              !Intermediates
!
A4 A3R5 A3C2H-A A3C2H-B A3C2H-C A3C2H-D A3C2H-E                              !Product
!**********************PAH from A3 to A4 *****************************************************
!
!
!**********************PAH growth from A2R5***************************************************
!        5-member ring part 1
M1-1	M2-1	M3-1	M4-1                                                       !Intermediates
!    ******************************
!        5-member ring part 2
M1-2 M1-4 M1-5 M1-7 M1-8 M1-9 P1-6                                           !Intermediates
Fluoranthene P1-3 P1-11 P1-12                                                !Products 
!    ******************************
!        5-member ring part 3
M2-2 M2-4 M2-5 M2-6 M2-7 M2-8 M2-9 M2-10 M2-11 M2-14 P2-12                   !Intermediates
M2-16 M2-18 M2-20 M2-21 M2-23 M2-25 M2-27 M2-29 M2-32	M2-34 M2-35            !Intermediates 
P2-3 P2-13 P2-15 P2-17 P2-19 P2-22 P2-24 P2-26 P2-28 P2-30                   !Products  
P2-31 P2-33 P2-36 P2-37                                                      !Products
!    ******************************
!        5-member ring part 4
M3-2 M3-4 M3-5 M3-6 M3-7 M3-8 M3-9 M3-10 M3-11 M3-35                         !Intermediates
M3-36 M3-14 M3-32 M3-16 M3-39 M3-18 M3-20 M3-23 M3-25                        !Intermediates
M3-27 M3-28 M3-29 M3-31 M3-33 P3-13 P3-34                                    !Intermediates
!                                               
P3-12 P3-37 P3-15 P3-38 P3-17 P3-40 P3-19 P3-21 P3-22 P3-24 P3-26            !Products
P3-30 A3R5-B P3-41                                                           !Products 
!    ******************************
!        5-member ring part 5
M4-2 M4-4                                                                    !Intermediates             
P4-5                                                                         !Products
!    ******************************
!        5-member ring part 6
A1_C13H9 Phenalenyl                                                          !Intermediates
Phenalene                                                                    !Products
!**********************PAH growth from A2R5*****************************************************

!bi-C6H5CH2
!C6H5C6H5
!C10H8
!
!CH2         - triplet methylene
!CH2*        - singlet methylene
!H2CC        - vinylidene
!aC3H5       - allyl
!CH3CCH2     - CH3-*C=CH2
!CH3CHCH     - CH3-CH=CH*
!nC3H7       - CH3-CH2-CH2*
!iC3H7       - CH3-*CH-CH3
!CH2OCH      - CH2OCH* radical of ethylene oxide
!nC4H3      - *CH=CH-CCH
!iC4H3      - CH2C*-CCH
!nC4H5      - *CH=CH-CH=CH2
!iC4H5      - CH2=C*-CH=CH2
!iC4H7       2-methylpropen-3-yl       H2C=C(CH3)(CH2)   
! C4H10       n-butane                  CH3CH2CH2CH3
! iC4H10      i-butane                  CH(CH3)3
! pC4H9       1-butyl                   CH3CH2CH2CH2
! sC4H9       2-butyl                   CH3CH2CHCH3
! tC4H9       t-butyl                   C(CH3)3
! iC4H9       i-butyl                   CH2CH(CH3)2
! C4H81       1-butene                  CH3CH2CHCH2
! C4H82       2-butene                  CH3CHCHCH3
! iC4H8       i-butene                  H2C=C(CH3)2    
!C4H5-2      - CH3-CC-*CH2
!C4H7        - *CH2-CH2-CH=CH2
!CH2CHCO     - CH2=CH-*CO
!C5H5        - cyclopentadienyl
!CH2CHCHCHO  - *CH2-CH=CH-CHO		
!CH3CHCHCO   - CH3-CH=CH-*CO
!C6H3        - *CH=CH-CC-CCH
!C6H5        - phenyl
!C5H5O       - cyclopentadienyloxy radical
!C5H4OH      - cyclopentadienolyl radical
!C6H5CH2     - benzyl
!C6H5O       - phenoxy radical
!CH2OCH2     - ethylene oxide
!C4H6        - 1,3-butadiene
!C4H612      - 1,2-butadiene
!C4H6-2      - 2-butyne
!C4H81       - 1-butene  
!C2H3CHO     - acrolein
!CH3CHOCH2   - propylene oxide
!CH3COCH3    - acetone
!C5H6        - cyclopentadiene
!H2C4O       - CH2=C=C=C=O
!C4H4O       - furan
!C2H3CHOCH2  - ethenyloxirane
!C4H6O23     - 2,3-dihydrofuran
!CH3CHCHCHO  - crotonaldehyde
!C4H6O25     - 2,5-dihydrofuran
!l-C6H4      - CH2=CH-CC-CCH
!o-C6H4      - benzyne
!C6H6        - benzene
!C5H4O       - 2,4-cyclopentadiene, 1-one
!C6H5CH3     - toluene
!C6H5OH      - phenol
!C6H5C2H     - phenylacetylene
!C6H5C2H3    - styrene
!C10H8       - naphthalene 
!C5H5CH3     - methylcyclopentadiene
!C5H4CH2     - fulvene
END
REACTIONS
! ---- Optimized H2/O2 mechanism ----
 H+O2 = O+OH                                  2.644E+16  -0.6707 17041.00 !GRI3.0 * 1.00
 O+H2 = H+OH                                  4.589E+04   2.700   6260.00 !GRI3.0 * 1.19
 OH+H2 = H+H2O                                1.734E+08   1.510   3430.00 !GRI3.0 * 0.80
 OH+OH = O+H2O                                3.973E+04   2.400  -2110.00 !GRI3.0 * 1.11
 H+H+M = H2+M                                 1.780E+18  -1.000      0.00 !GRI3.0 * 1.78
                                         H2/0.0/ H2O/0.0/ CO2/0.0/ AR/0.63/ 
                                                                  !HE/0.63/
 H+H+H2 = H2+H2                               9.000E+16  -0.600      0.00 !GRI3.0
 H+H+H2O = H2+H2O                             5.624E+19  -1.250      0.00 !GRI3.0 * 0.94
 H+H+CO2 = H2+CO2                             5.500E+20  -2.000      0.00 !GRI3.0
 H+OH+M = H2O+M                               4.400E+22  -2.000      0.00 !GRI3.0 * 2.00
                               H2/2.0/ H2O/6.30/ CO/1.75/ CO2/3.6/  AR/0.38/ 
                                                                   !HE/0.38/
 O+H+M = OH+M                                 9.428E+18  -1.000      0.00  !86TSA/HAM * 2.00
                                H2/2.0/ H2O/12.0/ CO/1.75/ CO2/3.6/  AR/0.7/ 
!                                                                    HE/0.7/
 O+O+M = O2+M                                 1.200E+17   -1.000      0.00 !GRI3.0
                              H2/2.4/ H2O/15.4/  CO/1.75/ CO2/3.6/  AR/0.83/ 
!                                                                   HE/0.83/
 H+O2(+M) = HO2(+M)                           5.116E+12    0.440      0.00 !00 TROE - Based on M=N2 * 1.10
                                        LOW / 6.328E+19   -1.400      0.00 /
                                        TROE/ 0.5  1E-30  1E+30            /
                            O2/0.85/  H2O/11.89/ CO/1.09/ CO2/2.18/ AR/0.40/ 
!                                                                   HE/0.46/ 
 H2+O2 = HO2+H                                5.916E+05    2.433  53502.00 !00MIC/SUT * 0.80
 OH+OH(+M) = H2O2(+M)                         1.110E+14   -0.370      0.00 !88ZEL/EWI * 1.50
                                      LOW  /  2.010E+17   -0.584  -2293.00 /!Fit 88ZEL/EWI and 92BAU/COB
                                      TROE / 0.7346   94.  1756.00  5182.0 /!H2O=6xN2 88ZEL/EWI
                                 H2/2.0/ H2O/6.00/ CO/1.75/ CO2/3.6/ AR/0.7/ 
!                                                                    HE/0.7/
!
!
! Reactions of HO2
!
 HO2+H = O+H2O                                3.970E+12    0.000    671.00 !GRI3.0
 HO2+H = OH+OH                                7.485E+13    0.000    295.00 !99MUE/KIM * 1.06
 HO2+O = OH+O2                                4.000E+13    0.000      0.00 !GRI3.0 * 2.00
 HO2+HO2 = O2+H2O2                            1.300E+11    0.000  -1630.00 !90HIP/TRO
  DUPLICATE
 HO2+HO2 = O2+H2O2                            3.658E+14    0.000  12000.00 !90HIP/TRO * 0.87
  DUPLICATE
 OH+HO2=H2O+O2                                1.41E+18    -1.760      60.0 ! Wang07 
  Duplicate
 OH+HO2=H2O+O2                                1.12E+85   -22.300   26900.0 ! Wang07
  Duplicate
 OH+HO2=H2O+O2                                5.37E+70   -16.720   32900.0 ! Wang07
  Duplicate
 OH+HO2=H2O+O2                                2.51E+12     2.000   40000.0 ! Wang07
  Duplicate
 OH+HO2=H2O+O2                                1.00E+136   -40.000  34800.0 ! Wang07
  Duplicate
! 
! Reactions of H2O2
!   
 H2O2+H = HO2+H2                              6.050E+06    2.000   5200.00 !GRI3.0 * 0.50
 H2O2+H = OH+H2O                              2.410E+13    0.000   3970.00 !86TSA/HAM
 H2O2+O = OH+HO2                              9.630E+06    2.000   3970.00 !86TSA/HAM
 H2O2+OH = HO2+H2O                            2.000E+12    0.000    427.00 !95HIP/NEU
  DUPLICATE
 H2O2+OH = HO2+H2O                            2.670E+41   -7.000  37600.00 !Refit95HIP/NEU
  DUPLICATE                                                !2.2E14 MAX K
! 
! Reactions of CO/CO2
!
 CO+O(+M)=CO2(+M)                             1.362E+10    0.000   2384.00 !99MUE/KIM * 0.76
                                        LOW / 1.173E+24   -2.79    4191.   / 
                                   H2/2.0/ H2O/12/ CO/1.75/ CO2/3.6/ AR/0.7/ 
!                                                                    HE/0.7/   
 CO+OH = CO2+H                                7.046E+04    2.053  -355.67  !06JOS/WANG
   DUPLICATE
 CO+OH = CO2+H                                5.757E+12   -0.664   331.83  !06JOS/WANG
   DUPLICATE
 CO+O2 = CO2+O                                1.119E+12    0.000  47700.00 !86TSA/HAM * 0.44
 CO+HO2 = CO2+OH                              1.570E+05    2.180  17942.61 !07YOU/WANG
! 
! Reactions of HCO
!
 HCO+H = CO+H2                                1.200E+14    0.000      0.00 !02FRI/DAV * 1.00
 HCO+O = CO+OH                                3.000E+13    0.000      0.00 !GRI3.0
 HCO+O = CO2+H                                3.000E+13    0.000      0.00 !GRI3.0
 HCO+OH = CO+H2O                              3.020E+13    0.000      0.00 !86TSA/HAM
 HCO+M = CO+H+M                               1.870E+17   -1.000  17000.00 !02FRI/DAV * 2.00
                                              H2/2.0/ H2O/0.0/ CO/1.75/ CO2/3.6/
 HCO+H2O = CO+H+H2O                           2.244E+18   -1.000  17000.00 !12xM * 2.00
 HCO+O2 = CO+HO2                              1.204E+10    0.807   -727.00 !96HSU/MEB
! ---- End of Optimized H2/O2 mechanism ----
!
!
! Reactions of CO/CO2 (See the H2/CO model above for additional reactions)
!
CO+H2(+M) = CH2O(+M)                          4.300E+07    1.500  79600.00  !GRI
                                      LOW  /  5.070E+27   -3.420  84350.00  /
                                      TROE/  0.9320  197.00  1540.00 10300. /
                 H2/2.0/ H2O/6.0/ CH4/2.0/ CO/1.5/ CO2/2.0/ C2H6/3.0/ AR/0.7/
!
! Reactions of C
!
 C+OH = CO+H                                  5.000E+13    0.000      0.00  !GRI
 C+O2 = CO+O                                  5.800E+13    0.000    576.00  !GRI
!
! Reactions of CH
!
 CH+H = C+H2                                  1.100E+14    0.000      0.00  !GRI
 CH+O = CO+H                                  5.700E+13    0.000      0.00  !GRI
 CH+OH = HCO+H                                3.000E+13    0.000      0.00  !GRI
 CH+H2 = CH2+H                                1.107E+08    1.790   1670.00  !GRI
 CH+H2O = CH2O+H                              5.710E+12    0.000   -755.00  !GRI
 CH+O2 = HCO+O                                3.300E+13    0.000      0.00  !GRI
 CH+CO(+M) = HCCO(+M)                         5.000E+13    0.000      0.00  !GRI
                                      LOW  /  2.690E+28   -3.740   1936.00  /
                                      TROE/  0.5757  237.00  1652.0  5069.0 /
                 H2/2.0/ H2O/6.0/ CH4/2.0/ CO/1.5/ CO2/2.0/ C2H6/3.0/ AR/0.7/
 CH+CO2 = HCO+CO                              3.400E+12    0.000    690.00  !GRI
!
! Reactions of HCO (See the H2/CO model above for additional reactions)
!
 HCO+H(+M) = CH2O(+M)                         1.090E+12    0.480   -260.00  !GRI
                                      LOW  /  1.350E+24   -2.570   1425.00  /
                                      TROE/  0.7824  271.0  2755.00  6570.0 /
                H2/2.0/ H2O/6.0/ CH4/2.0/ CO/1.5/ CO2/2.0/ C2H6/3.0/ AR/0.7 /
!
! Reactions of CH2(triplet)
!
 CH2+H(+M) = CH3(+M)                          2.500E+16   -0.800      0.00  !GRI
                                      LOW  /  3.200E+27   -3.140   1230.00  /
                                      TROE/  0.6800   78.00  1995.0  5590.0 /
                 H2/2.0/ H2O/6.0/ CH4/2.0/ CO/1.5/ CO2/2.0/ C2H6/3.0/ AR/0.7/
 CH2+O = HCO+H                                8.000E+13    0.000      0.00  !GRI
 CH2+OH = CH2O+H                              2.000E+13    0.000      0.00  !GRI
 CH2+OH = CH+H2O                              1.130E+07    2.000   3000.00  !GRI
 CH2+H2 = H+CH3                               5.000E+05    2.000   7230.00  !GRI
 CH2+O2 = HCO+OH                              1.060E+13    0.000   1500.00  !GRI##
 CH2+O2 = CO2+H+H                             2.640E+12    0.000   1500.00  !GRI##
 CH2+HO2 = CH2O+OH                            2.000E+13    0.000      0.00  !GRI
 CH2+C = C2H+H                                5.000E+13    0.000      0.00  !GRI
 CH2+CO(+M) = CH2CO(+M)                       8.100E+11    0.500   4510.00  !GRI
                                      LOW  /  2.690E+33   -5.110   7095.00  /
                                      TROE/ 0.5907  275.0  1226.00  5185.00 /
                 H2/2.0/ H2O/6.0/ CH4/2.0/ CO/1.5/ CO2/2.0/ C2H6/3.0/ AR/0.7/
 CH2+CH = C2H2+H                              4.000E+13    0.000      0.00  !GRI  
 CH2+CH2 = C2H2+H2                            3.200E+13    0.000      0.00  !GRI
!
! Reactions of CH2(singlet)
!
 CH2*+N2 = CH2+N2                             1.500E+13    0.000    600.00  !GRI
 CH2*+AR = CH2+AR                             9.000E+12    0.000    600.00  !GRI
 CH2*+H = CH+H2                               3.000E+13    0.000      0.00  !GRI
 CH2*+O = CO+H2                               1.500E+13    0.000      0.00  !GRI
 CH2*+O = HCO+H                               1.500E+13    0.000      0.00  !GRI
 CH2*+OH = CH2O+H                             3.000E+13    0.000      0.00  !GRI
 CH2*+H2 = CH3+H                              7.000E+13    0.000      0.00  !GRI
 CH2*+O2 = H+OH+CO                            2.800E+13    0.000      0.00  !GRI
 CH2*+O2 = CO+H2O                             1.200E+13    0.000      0.00  !GRI
 CH2*+H2O(+M) = CH3OH(+M)                     2.000E+13    0.000      0.00  !GRI
                                      LOW  /  2.700E+38   -6.300   3100.00  /
                                      TROE/  0.1507  134.00  2383.0  7265.0 /
                         H2/2.0/ H2O/6.0/ CH4/2.0/ CO/1.5/ CO2/2.0/ C2H6/3.0/
 CH2*+H2O = CH2+H2O                           3.000E+13    0.000      0.00  !GRI
 CH2*+CO = CH2+CO                             9.000E+12    0.000      0.00  !GRI
 CH2*+CO2 = CH2+CO2                           7.000E+12    0.000      0.00  !GRI
 CH2*+CO2 = CH2O+CO                           1.400E+13    0.000      0.00  !GRI
!
! Reactions of CH2O
!
 CH2O+H(+M) = CH2OH(+M)                       5.400E+11    0.454   3600.00  !GRI
                                     LOW  /   1.270E+32   -4.820   6530.00  /
                                     TROE/  0.7187  103.00  1291.00  4160.0 /
                         H2/2.0/ H2O/6.0/ CH4/2.0/ CO/1.5/ CO2/2.0/ C2H6/3.0/
 CH2O+H(+M) = CH3O(+M)                        5.400E+11    0.454   2600.00  !GRI
                                      LOW  /  2.200E+30   -4.800   5560.00  /
                                      TROE/  0.7580   94.00  1555.0 4200.00 /
                         H2/2.0/ H2O/6.0/ CH4/2.0/ CO/1.5/ CO2/2.0/ C2H6/3.0/
 CH2O+H = HCO+H2                              2.300E+10    1.050   3275.00  !GRI
 CH2O+O = HCO+OH                              3.900E+13    0.000   3540.00  !GRI
 CH2O+OH = HCO+H2O                            3.430E+09    1.180   -447.00  !GRI
 CH2O+O2 = HCO+HO2                            1.000E+14    0.000  40000.00  !GRI
 CH2O+HO2 = HCO+H2O2                          1.000E+12    0.000   8000.00  !GRI
 CH2O+CH = CH2CO+H                            9.460E+13    0.000   -515.00  !GRI
!
! Reactions of CH3
!
 CH3+H(+M) = CH4(+M)                          1.270E+16   -0.630    383.00  !GRI
                                     LOW  /   2.477E+33   -4.760   2440.00  /
                                     TROE/  0.7830   74.00  2941.00  6964.0 /
                 H2/2.0/ H2O/6.0/ CH4/2.0/ CO/1.5/ CO2/2.0/ C2H6/3.0/ AR/0.7/
 CH3+O = CH2O+H                               8.430E+13    0.000      0.00  !GRI
 CH3+OH(+M) = CH3OH(+M)                       6.300E+13    0.000      0.00  !GRI
                                      LOW  /  2.700E+38   -6.300   3100.00  /
                                      TROE/  0.2105   83.5 5398.00  8370.0  /
                         H2/2.0/ H2O/6.0/ CH4/2.0/ CO/1.5/ CO2/2.0/ C2H6/3.0/
 CH3+OH = CH2+H2O                             5.600E+07    1.600   5420.00  !GRI
 CH3+OH = CH2*+H2O                            2.501E+13    0.000      0.00  !GRI
 CH3+O2 = O+CH3O                              3.083E+13    0.000  28800.00  !GRI
 CH3+O2 = OH+CH2O                             3.600E+10    0.000   8940.00  !GRI 
 CH3+HO2 = CH4+O2                             1.000E+12    0.000      0.00  !GRI
 CH3+HO2 = CH3O+OH                            1.340E+13    0.000      0.00  !GRI
 CH3+H2O2 = CH4+HO2                           2.450E+04    2.470   5180.00  !GRI
 CH3+C = C2H2+H                               5.000E+13    0.000      0.00  !GRI
 CH3+CH = C2H3+H                              3.000E+13    0.000      0.00  !GRI
 CH3+HCO = CH4+CO                             8.480E+12    0.000      0.00  !GRI
 CH3+CH2O = CH4+HCO                           3.320E+03    2.810   5860.00  !GRI
 CH3+CH2 = C2H4+H                             4.000E+13    0.000      0.00  !GRI
 CH3+CH2* = C2H4+H                            1.200E+13    0.000   -570.00  !GRI
 CH3+CH3(+M) = C2H6(+M)                       2.120E+16   -0.970    620.00  !GRI
                                      LOW  /  1.770E+50   -9.670   6220.00  /
                                      TROE/  0.5325  151.0  1038.00  4970.0 /
                 H2/2.0/ H2O/6.0/ CH4/2.0/ CO/1.5/ CO2/2.0/ C2H6/3.0/ AR/0.7/
 CH3+CH3 = H+C2H5                             4.990E+12    0.100  10600.00  !GRI
 CH3+HCCO = C2H4+CO                           5.00E+13     0.0        0.0   !Estimated
 CH3+C2H = C3H3+H                             2.41E+13     0.0        0.0   !86TSA/HAM
!
! Reactions of CH3O
!
 CH3O+H(+M) = CH3OH(+M)                       5.000E+13    0.000      0.00  !GRI
                                      LOW  /  8.600E+28   -4.000   3025.00  /
                                      TROE/  0.8902  144.0  2838.00 45569.0 /
                         H2/2.0/ H2O/6.0/ CH4/2.0/ CO/1.5/ CO2/2.0/ C2H6/3.0/
 CH3O+H = CH2OH+H                             3.400E+06    1.600      0.00  !GRI
 CH3O+H = CH2O+H2                             2.000E+13    0.000      0.00  !GRI
 CH3O+H = CH3+OH                              3.200E+13    0.000      0.00  !GRI
 CH3O+H = CH2*+H2O                            1.600E+13    0.000      0.00  !GRI
 CH3O+O = CH2O+OH                             1.000E+13    0.000      0.00  !GRI
 CH3O+OH = CH2O+H2O                           5.000E+12    0.000      0.00  !GRI
 CH3O+O2 = CH2O+HO2                           4.280E-13    7.600  -3530.00  !GRI
!
! Reactions of CH2OH
!
 CH2OH+H(+M) = CH3OH(+M)                      1.800E+13    0.000     0.00   !GRI
                                      LOW  /  3.000E+31   -4.800  3300.00   /
                                      TROE/  0.7679  338.00  1812.0 5081.0  /
    H2/2.0/ H2O/6.0/ CH4/2.0/ CO/1.5/ CO2/2.0/ C2H6/3.0/
 CH2OH+H = CH2O+H2                            2.000E+13    0.000     0.00   !GRI
 CH2OH+H = CH3+OH                             1.200E+13    0.000     0.00   !GRI
 CH2OH+H = CH2*+H2O                           6.000E+12    0.000     0.00   !GRI
 CH2OH+O = CH2O+OH                            1.000E+13    0.000     0.00   !GRI
 CH2OH+OH = CH2O+H2O                          5.000E+12    0.000     0.00   !GRI
 CH2OH+O2 = CH2O+HO2                          1.800E+13    0.000   900.00   !GRI
!
! Reactions of CH4
!
 CH4+H = CH3+H2                               6.600E+08    1.620 10840.00   !GRI
 CH4+O = CH3+OH                               1.020E+09    1.500  8600.00   !GRI
 CH4+OH = CH3+H2O                             1.000E+08    1.600  3120.00   !GRI
 CH4+CH = C2H4+H                              6.000E+13    0.000     0.00   !GRI
 CH4+CH2 = CH3+CH3                            2.460E+06    2.000  8270.00   !GRI
 CH4+CH2* = CH3+CH3                           1.600E+13    0.000  -570.00   !GRI
 CH4+C2H = C2H2+CH3                           1.810E+12    0.0     500.0    !86TSA/HAM
!
! Reactions of CH3OH
!
 CH3OH+H = CH2OH+H2                           1.700E+07    2.100  4870.00   !GRI
 CH3OH+H = CH3O+H2                            4.200E+06    2.100  4870.00   !GRI
 CH3OH+O = CH2OH+OH                           3.880E+05    2.500  3100.00   !GRI
 CH3OH+O = CH3O+OH                            1.300E+05    2.500  5000.00   !GRI
 CH3OH+OH = CH2OH+H2O                         1.440E+06    2.000  -840.00   !GRI
 CH3OH+OH = CH3O+H2O                          6.300E+06    2.000  1500.00   !GRI
 CH3OH+CH3 = CH2OH+CH4                        3.000E+07    1.500  9940.00   !GRI
 CH3OH+CH3 = CH3O+CH4                         1.000E+07    1.500  9940.00   !GRI
!
! Reactions of C2H
!
 C2H+H(+M) = C2H2(+M)                         1.000E+17   -1.000     0.00   !GRI
                                      LOW  /  3.750E+33   -4.800  1900.00   /
                                      TROE/  0.6464  132.00  1315.00 5566.0 /
                 H2/2.0/ H2O/6.0/ CH4/2.0/ CO/1.5/ CO2/2.0/ C2H6/3.0/ AR/0.7/
 C2H+O = CH+CO                                5.000E+13    0.000     0.00   !GRI
 C2H+OH = H+HCCO                              2.000E+13    0.000     0.00   !GRI
 C2H+O2 = HCO+CO                              5.000E+13    0.000  1500.00   !GRI
 C2H+H2 = H+C2H2                              4.900E+05    2.500   560.00   !GRI
!
! Reactions of C2O
!
 C2O+H = CH+CO                                5.000E+13    0.000     0.00   !92MIL/MEL
 C2O+O = CO+CO                                5.000E+13    0.000     0.00   !92MIL/MEL 
 C2O+OH = CO+CO+H                             2.000E+13    0.000     0.00   !92MIL/MEL
 C2O+O2 = CO+CO+O                             2.000E+13    0.000     0.00   !92MIL/MEL
!
! Reactions of HCCO
!
 HCCO+H = CH2*+CO                             1.000E+14    0.000     0.00   !GRI
 HCCO+O = H+CO+CO                             1.000E+14    0.000     0.00   !GRI
 HCCO+O2 = OH+2CO                             1.600E+12    0.000   854.00   !GRI
 HCCO+CH = C2H2+CO                            5.000E+13    0.000     0.00   !GRI
 HCCO+CH2 = C2H3+CO                           3.000E+13    0.000     0.00   !GRI
 HCCO+HCCO = C2H2+CO+CO                       1.000E+13    0.000     0.00   !GRI
 HCCO+OH = C2O+H2O                            3.000E+13    0.000     0.00   !92MIL/MEL
!
! Reactions of C2H2
!
 C2H2 (+M) = H2CC (+M)                        8.000E+14   -0.520  50750.00  !99LAS/WAN
                                      LOW /   2.450E+15   -0.640  49700.00  /
      H2/2.0/ H2O/6.0/ CH4/2.0/ CO/1.5/ CO2/2.0/ C2H6/3.0/C2H2/2.5/ C2H4/2.5/ 
 C2H3 (+M) = C2H2+H (+M)                      3.860E+08    1.620  37048.2   !96KNY/SLA
                                      LOW  /  2.565E+27   -3.400  35798.72  /
                                      TROE/  1.9816  5383.7  4.2932 -0.0795 /
      H2/2.0/ H2O/6.0/ CH4/2.0/ CO/1.5/ CO2/2.0/ C2H6/3.0/ AR/0.7/ C2H2/3.00/ 
                                                                   C2H4/3.00/
 C2H2+O = C2H+OH                              4.600E+19   -1.410  28950.00  !GRI
 C2H2+O = CH2+CO                              4.080E+06    2.000   1900.00  !GRI (0.2 branching ratio)
 C2H2+O = HCCO + H                            1.632E+07    2.000   1900.00  !GRI (0.8 branching ratio)
 C2H2+OH = CH2CO+H                            2.180E-04    4.500  -1000.00  !GRI
 C2H2+OH = HCCOH+H                            5.040E+05    2.300  13500.00  !GRI
 C2H2+OH = C2H+H2O                            3.370E+07    2.000  14000.00  !GRI
 C2H2+OH = CH3+CO                             4.830E-04    4.000  -2000.00  !GRI
 C2H2+HCO = C2H3+CO                           1.000E+07    2.000   6000.00  !Estimated
 C2H2+CH2 = C3H3+H                            1.200E+13    0.000   6620.00  !88BOH/TEM; 86FRA/BHA
 C2H2+CH2* = C3H3+H                           2.000E+13    0.000      0.00  !97WAN/FRE
 C2H2+C2H = C4H2+H                            9.600E+13    0.000      0.00  !91SHI/MIC, 92KOS/FUK, 93FAR/MOR
 C2H2+C2H (+M) = nC4H3 (+M)                   8.300E+10    0.899   -363.00  !92WAN
                                       LOW   /1.240E+31   -4.718   1871.00  /
                                       TROE  /1.0 100. 5613. 13387.         /
                         H2/2.0/ H2O/6.0/ CH4/2.0/ CO/1.5/ CO2/2.0/ C2H6/3.0/ 
                                                          C2H2/2.5/ C2H4/2.5/  
 C2H2+C2H (+M) = iC4H3 (+M)                   8.300E+10    0.899    -363.00 !92WAN